@<TRIPOS>MOLECULE
*****
 27 30 0 0 0
SMALL
GASTEIGER

@<TRIPOS>ATOM
      1 C         139.0190  140.3340  165.6256 C.ar    1  UNL1        0.0814
      2 C         139.1926  141.3843  164.5688 C.ar    1  UNL1        0.0380
      3 C         139.8688  142.6806  164.9038 C.ar    1  UNL1        0.1017
      4 C         140.3714  142.9267  166.2955 C.ar    1  UNL1        0.1004
      5 N         140.1978  141.8765  167.3523 N.ar    1  UNL1       -0.2905
      6 C         140.5873  141.8355  168.8002 C.ar    1  UNL1        0.0567
      7 C         141.2891  142.9249  169.5555 C.3     1  UNL1        0.0517
      8 C         140.1519  140.5138  169.3601 C.ar    1  UNL1        0.0730
      9 C         140.3419  140.0495  170.7738 C.3     1  UNL1        0.0534
     10 N         139.4932  139.7379  168.2583 N.ar    1  UNL1       -0.2299
     11 C         139.5216  140.5801  167.0173 C.ar    1  UNL1        0.1604
     12 N         140.0424  143.7309  163.8470 N.ar    1  UNL1       -0.2266
     13 C         139.0001  144.7125  163.3998 C.ar    1  UNL1        0.1021
     14 C         139.6024  145.5723  162.3283 C.ar    1  UNL1        0.0431
     15 C         141.0170  145.1220  162.1133 C.ar    1  UNL1        0.1221
     16 N         141.2889  143.9841  163.0519 N.ar    1  UNL1       -0.1634
     17 N         138.3428  139.0376  165.2907 N.pl3   1  UNL1       -0.3267
     18 H         137.3640  138.9601  165.3624 H       1  UNL1        0.1472
     19 C         139.1580  137.8594  164.8466 C.3     1  UNL1        0.1137
     20 C         138.0787  137.9763  162.0499 C.3     1  UNL1        0.0307
     21 C         139.5580  138.0509  162.2867 C.ar    1  UNL1       -0.0245
     22 C         140.4978  138.1841  161.1251 C.ar    1  UNL1       -0.0045
     23 C         141.9770  138.2587  161.3619 C.ar    1  UNL1       -0.0007
     24 C         142.5167  138.2002  162.7602 C.ar    1  UNL1       -0.0045
     25 C         141.5770  138.0671  163.9218 C.ar    1  UNL1       -0.0245
     26 C         142.1166  138.0086  165.3202 C.3     1  UNL1        0.0307
     27 C         140.0976  137.9925  163.6850 C.ar    1  UNL1       -0.0105
@<TRIPOS>BOND
     1    20    21    1
     2    21    22   ar
     3    22    23   ar
     4    23    24   ar
     5    24    25   ar
     6    25    26    1
     7    25    27   ar
     8    27    19    1
     9    19    17    1
    10    17     1    1
    11     1     2   ar
    12     2     3   ar
    13     3    12    1
    14    12    13   ar
    15    13    14   ar
    16    14    15   ar
    17    15    16   ar
    18     3     4   ar
    19     4     5   ar
    20     5     6   ar
    21     6     7    1
    22     6     8   ar
    23     8     9    1
    24     8    10   ar
    25    10    11   ar
    26    27    21   ar
    27    11     1   ar
    28    16    12   ar
    29    11     5   ar
    30    17    18    1
@<TRIPOS>MOLECULE
*****
 27 30 0 0 0
SMALL
GASTEIGER

@<TRIPOS>ATOM
      1 C         143.5049  142.8850  165.0835 C.ar    1  UNL1        0.0814
      2 C         143.3369  141.9907  166.2759 C.ar    1  UNL1        0.0380
      3 C         141.9882  141.8373  166.9142 C.ar    1  UNL1        0.1017
      4 C         140.8075  142.5782  166.3601 C.ar    1  UNL1        0.1004
      5 N         140.9755  143.4725  165.1677 N.ar    1  UNL1       -0.2905
      6 C         140.0027  144.3230  164.4059 C.ar    1  UNL1        0.0567
      7 C         138.5394  144.4688  164.7014 C.3     1  UNL1        0.0517
      8 C         140.7502  145.0020  163.2967 C.ar    1  UNL1        0.0730
      9 C         140.1655  145.9462  162.2883 C.3     1  UNL1        0.0534
     10 N         142.1849  144.5713  163.3730 N.ar    1  UNL1       -0.2299
     11 C         142.3242  143.6259  164.5294 C.ar    1  UNL1        0.1604
     12 N         141.8201  140.9429  168.1067 N.ar    1  UNL1       -0.2266
     13 C         140.5690  140.7810  168.9180 C.ar    1  UNL1        0.1021
     14 C         140.8493  139.7915  170.0099 C.ar    1  UNL1        0.0431
     15 C         142.2739  139.3418  169.8734 C.ar    1  UNL1        0.1221
     16 N         142.8738  140.0535  168.6972 N.ar    1  UNL1       -0.1634
     17 N         144.8536  143.0385  164.4451 N.pl3   1  UNL1       -0.3267
     18 H         145.2874  143.9218  164.4172 H       1  UNL1        0.1472
     19 C         145.5414  141.8460  163.8493 C.3     1  UNL1        0.1137
     20 C         144.6985  142.7245  161.1074 C.3     1  UNL1        0.0307
     21 C         144.3583  141.3459  161.5909 C.ar    1  UNL1       -0.0245
     22 C         143.5966  140.4065  160.7035 C.ar    1  UNL1       -0.0045
     23 C         143.2564  139.0280  161.1870 C.ar    1  UNL1       -0.0007
     24 C         143.6778  138.5888  162.5580 C.ar    1  UNL1       -0.0045
     25 C         144.4394  139.5281  163.4454 C.ar    1  UNL1       -0.0245
     26 C         144.8609  139.0889  164.8163 C.3     1  UNL1        0.0307
     27 C         144.7797  140.9067  162.9619 C.ar    1  UNL1       -0.0105
@<TRIPOS>BOND
     1    20    21    1
     2    21    22   ar
     3    22    23   ar
     4    23    24   ar
     5    24    25   ar
     6    25    26    1
     7    25    27   ar
     8    27    19    1
     9    19    17    1
    10    17     1    1
    11     1     2   ar
    12     2     3   ar
    13     3    12    1
    14    12    13   ar
    15    13    14   ar
    16    14    15   ar
    17    15    16   ar
    18     3     4   ar
    19     4     5   ar
    20     5     6   ar
    21     6     7    1
    22     6     8   ar
    23     8     9    1
    24     8    10   ar
    25    10    11   ar
    26    27    21   ar
    27    11     1   ar
    28    16    12   ar
    29    11     5   ar
    30    17    18    1
@<TRIPOS>MOLECULE
*****
 27 30 0 0 0
SMALL
GASTEIGER

@<TRIPOS>ATOM
      1 C         139.8540  140.2487  165.4754 C.ar    1  UNL1        0.0814
      2 C         139.8940  141.2848  164.3916 C.ar    1  UNL1        0.0380
      3 C         140.0931  142.7296  164.7422 C.ar    1  UNL1        0.1017
      4 C         140.2523  143.1382  166.1767 C.ar    1  UNL1        0.1004
      5 N         140.2123  142.1021  167.2605 N.ar    1  UNL1       -0.2905
      6 C         140.3392  142.2039  168.7516 C.ar    1  UNL1        0.0567
      7 C         140.5499  143.4660  169.5344 C.3     1  UNL1        0.0517
      8 C         140.2186  140.8221  169.3226 C.ar    1  UNL1        0.0730
      9 C         140.2874  140.4598  170.7766 C.3     1  UNL1        0.0534
     10 N         140.0171  139.8662  168.1843 N.ar    1  UNL1       -0.2299
     11 C         140.0132  140.6573  166.9099 C.ar    1  UNL1        0.1604
     12 N         140.1331  143.7658  163.6583 N.ar    1  UNL1       -0.2266
     13 C         139.0420  144.7415  163.3307 C.ar    1  UNL1        0.1021
     14 C         139.5057  145.5870  162.1817 C.ar    1  UNL1        0.0431
     15 C         140.8836  145.1338  161.7992 C.ar    1  UNL1        0.1221
     16 N         141.2713  144.0082  162.7118 N.ar    1  UNL1       -0.1634
     17 N         139.6549  138.8039  165.1248 N.pl3   1  UNL1       -0.3267
     18 H         138.7469  138.4544  164.9743 H       1  UNL1        0.1472
     19 C         140.8393  137.8914  165.0035 C.3     1  UNL1        0.1137
     20 C         143.1270  138.7790  166.7294 C.3     1  UNL1        0.0307
     21 C         143.2504  138.8311  165.2354 C.ar    1  UNL1       -0.0245
     22 C         144.5176  139.3269  164.6042 C.ar    1  UNL1       -0.0045
     23 C         144.6410  139.3790  163.1102 C.ar    1  UNL1       -0.0007
     24 C         143.4971  138.9352  162.2473 C.ar    1  UNL1       -0.0045
     25 C         142.2299  138.4393  162.8784 C.ar    1  UNL1       -0.0245
     26 C         141.0861  137.9955  162.0155 C.3     1  UNL1        0.0307
     27 C         142.1065  138.3873  164.3725 C.ar    1  UNL1       -0.0105
@<TRIPOS>BOND
     1    20    21    1
     2    21    22   ar
     3    22    23   ar
     4    23    24   ar
     5    24    25   ar
     6    25    26    1
     7    25    27   ar
     8    27    19    1
     9    19    17    1
    10    17     1    1
    11     1     2   ar
    12     2     3   ar
    13     3    12    1
    14    12    13   ar
    15    13    14   ar
    16    14    15   ar
    17    15    16   ar
    18     3     4   ar
    19     4     5   ar
    20     5     6   ar
    21     6     7    1
    22     6     8   ar
    23     8     9    1
    24     8    10   ar
    25    10    11   ar
    26    27    21   ar
    27    11     1   ar
    28    16    12   ar
    29    11     5   ar
    30    17    18    1
@<TRIPOS>MOLECULE
*****
 27 30 0 0 0
SMALL
GASTEIGER

@<TRIPOS>ATOM
      1 C         140.4639  142.4844  164.0076 C.ar    1  UNL1        0.0814
      2 C         140.8274  142.9904  165.3721 C.ar    1  UNL1        0.0380
      3 C         140.5807  142.1351  166.5794 C.ar    1  UNL1        0.1017
      4 C         139.9707  140.7739  166.4222 C.ar    1  UNL1        0.1004
      5 N         139.6072  140.2678  165.0578 N.ar    1  UNL1       -0.2905
      6 C         138.9965  138.9782  164.5953 C.ar    1  UNL1        0.0567
      7 C         138.5882  137.8317  165.4721 C.3     1  UNL1        0.0517
      8 C         138.8656  139.0365  163.1021 C.ar    1  UNL1        0.0730
      9 C         138.3035  137.9583  162.2236 C.3     1  UNL1        0.0534
     10 N         139.3955  140.3621  162.6418 N.ar    1  UNL1       -0.2299
     11 C         139.8538  141.1231  163.8505 C.ar    1  UNL1        0.1604
     12 N         140.9442  142.6412  167.9439 N.ar    1  UNL1       -0.2266
     13 C         142.2143  142.3448  168.6848 C.ar    1  UNL1        0.1021
     14 C         142.1564  143.0528  170.0059 C.ar    1  UNL1        0.0431
     15 C         140.8504  143.7868  170.0815 C.ar    1  UNL1        0.1221
     16 N         140.1012  143.5324  168.8072 N.ar    1  UNL1       -0.1634
     17 N         140.7105  143.3397  162.8002 N.pl3   1  UNL1       -0.3267
     18 H         140.0285  143.9865  162.5075 H       1  UNL1        0.1472
     19 C         141.9963  143.2093  162.0387 C.3     1  UNL1        0.1137
     20 C         142.5831  140.3455  161.3648 C.3     1  UNL1        0.0307
     21 C         143.4646  141.0854  162.3267 C.ar    1  UNL1       -0.0245
     22 C         144.6396  140.3934  162.9518 C.ar    1  UNL1       -0.0045
     23 C         145.5212  141.1333  163.9137 C.ar    1  UNL1       -0.0007
     24 C         145.2278  142.5652  164.2507 C.ar    1  UNL1       -0.0045
     25 C         144.0529  143.2572  163.6257 C.ar    1  UNL1       -0.0245
     26 C         143.7595  144.6891  163.9627 C.3     1  UNL1        0.0307
     27 C         143.1712  142.5173  162.6637 C.ar    1  UNL1       -0.0105
@<TRIPOS>BOND
     1    20    21    1
     2    21    22   ar
     3    22    23   ar
     4    23    24   ar
     5    24    25   ar
     6    25    26    1
     7    25    27   ar
     8    27    19    1
     9    19    17    1
    10    17     1    1
    11     1     2   ar
    12     2     3   ar
    13     3    12    1
    14    12    13   ar
    15    13    14   ar
    16    14    15   ar
    17    15    16   ar
    18     3     4   ar
    19     4     5   ar
    20     5     6   ar
    21     6     7    1
    22     6     8   ar
    23     8     9    1
    24     8    10   ar
    25    10    11   ar
    26    27    21   ar
    27    11     1   ar
    28    16    12   ar
    29    11     5   ar
    30    17    18    1
@<TRIPOS>MOLECULE
*****
 27 30 0 0 0
SMALL
GASTEIGER

@<TRIPOS>ATOM
      1 C         143.1249  142.1664  164.9698 C.ar    1  UNL1        0.0814
      2 C         142.5461  141.9328  166.3338 C.ar    1  UNL1        0.0380
      3 C         141.1868  142.4684  166.6735 C.ar    1  UNL1        0.1017
      4 C         140.4063  143.2375  165.6492 C.ar    1  UNL1        0.1004
      5 N         140.9850  143.4711  164.2852 N.ar    1  UNL1       -0.2905
      6 C         140.4542  144.1871  163.0788 C.ar    1  UNL1        0.0567
      7 C         139.1254  144.8753  162.9758 C.3     1  UNL1        0.0517
      8 C         141.4854  144.0941  161.9935 C.ar    1  UNL1        0.0730
      9 C         141.3689  144.6731  160.6146 C.3     1  UNL1        0.0534
     10 N         142.6536  143.3206  162.5291 N.ar    1  UNL1       -0.2299
     11 C         142.3443  142.9355  163.9455 C.ar    1  UNL1        0.1604
     12 N         140.6080  142.2348  168.0375 N.ar    1  UNL1       -0.2266
     13 C         140.5269  143.2428  169.1453 C.ar    1  UNL1        0.1021
     14 C         139.8775  142.5832  170.3256 C.ar    1  UNL1        0.0431
     15 C         139.5572  141.1674  169.9473 C.ar    1  UNL1        0.1221
     16 N         140.0087  140.9521  168.5331 N.ar    1  UNL1       -0.1634
     17 N         144.4842  141.6308  164.6301 N.pl3   1  UNL1       -0.3267
     18 H         145.2341  142.2508  164.4797 H       1  UNL1        0.1472
     19 C         144.7010  140.1507  164.5194 C.3     1  UNL1        0.1137
     20 C         143.2592  138.5165  166.5811 C.3     1  UNL1        0.0307
     21 C         142.8484  138.4384  165.1406 C.ar    1  UNL1       -0.0245
     22 C         141.7167  137.5432  164.7309 C.ar    1  UNL1       -0.0045
     23 C         141.3060  137.4651  163.2903 C.ar    1  UNL1       -0.0007
     24 C         142.0269  138.2821  162.2595 C.ar    1  UNL1       -0.0045
     25 C         143.1586  139.1773  162.6692 C.ar    1  UNL1       -0.0245
     26 C         143.8795  139.9944  161.6383 C.3     1  UNL1        0.0307
     27 C         143.5694  139.2555  164.1097 C.ar    1  UNL1       -0.0105
@<TRIPOS>BOND
     1    20    21    1
     2    21    22   ar
     3    22    23   ar
     4    23    24   ar
     5    24    25   ar
     6    25    26    1
     7    25    27   ar
     8    27    19    1
     9    19    17    1
    10    17     1    1
    11     1     2   ar
    12     2     3   ar
    13     3    12    1
    14    12    13   ar
    15    13    14   ar
    16    14    15   ar
    17    15    16   ar
    18     3     4   ar
    19     4     5   ar
    20     5     6   ar
    21     6     7    1
    22     6     8   ar
    23     8     9    1
    24     8    10   ar
    25    10    11   ar
    26    27    21   ar
    27    11     1   ar
    28    16    12   ar
    29    11     5   ar
    30    17    18    1
@<TRIPOS>MOLECULE
*****
 27 30 0 0 0
SMALL
GASTEIGER

@<TRIPOS>ATOM
      1 C         139.3235  141.8848  165.0215 C.ar    1  UNL1        0.0814
      2 C         139.9765  141.4336  166.2942 C.ar    1  UNL1        0.0380
      3 C         141.3448  141.9326  166.6530 C.ar    1  UNL1        0.1017
      4 C         142.0600  142.8829  165.7389 C.ar    1  UNL1        0.1004
      5 N         141.4070  143.3341  164.4662 N.ar    1  UNL1       -0.2905
      6 C         141.8639  144.2579  163.3763 C.ar    1  UNL1        0.0567
      7 C         143.1764  144.9825  163.3274 C.3     1  UNL1        0.0517
      8 C         140.7780  144.3297  162.3440 C.ar    1  UNL1        0.0730
      9 C         140.8140  145.1389  161.0814 C.3     1  UNL1        0.0534
     10 N         139.6500  143.4504  162.7958 N.ar    1  UNL1       -0.2299
     11 C         140.0387  142.8351  164.1075 C.ar    1  UNL1        0.1604
     12 N         141.9979  141.4814  167.9258 N.ar    1  UNL1       -0.2266
     13 C         143.0173  142.2492  168.7140 C.ar    1  UNL1        0.1021
     14 C         143.3956  141.4255  169.9091 C.ar    1  UNL1        0.0431
     15 C         142.6100  140.1486  169.8595 C.ar    1  UNL1        0.1221
     16 N         141.7462  140.1832  168.6337 N.ar    1  UNL1       -0.1634
     17 N         137.9551  141.3858  164.6627 N.pl3   1  UNL1       -0.3267
     18 H         137.1567  141.8591  164.9911 H       1  UNL1        0.1472
     19 C         137.8032  140.1656  163.8035 C.3     1  UNL1        0.1137
     20 C         139.5991  140.1563  161.4004 C.3     1  UNL1        0.0307
     21 C         139.8205  139.1671  162.5061 C.ar    1  UNL1       -0.0245
     22 C         140.9399  138.1732  162.4102 C.ar    1  UNL1       -0.0045
     23 C         141.1614  137.1840  163.5158 C.ar    1  UNL1       -0.0007
     24 C         140.2634  137.1887  164.7174 C.ar    1  UNL1       -0.0045
     25 C         139.1441  138.1826  164.8133 C.ar    1  UNL1       -0.0245
     26 C         138.2462  138.1872  166.0148 C.3     1  UNL1        0.0307
     27 C         138.9226  139.1718  163.7076 C.ar    1  UNL1       -0.0105
@<TRIPOS>BOND
     1    20    21    1
     2    21    22   ar
     3    22    23   ar
     4    23    24   ar
     5    24    25   ar
     6    25    26    1
     7    25    27   ar
     8    27    19    1
     9    19    17    1
    10    17     1    1
    11     1     2   ar
    12     2     3   ar
    13     3    12    1
    14    12    13   ar
    15    13    14   ar
    16    14    15   ar
    17    15    16   ar
    18     3     4   ar
    19     4     5   ar
    20     5     6   ar
    21     6     7    1
    22     6     8   ar
    23     8     9    1
    24     8    10   ar
    25    10    11   ar
    26    27    21   ar
    27    11     1   ar
    28    16    12   ar
    29    11     5   ar
    30    17    18    1
@<TRIPOS>MOLECULE
*****
 27 30 0 0 0
SMALL
GASTEIGER

@<TRIPOS>ATOM
      1 C         141.8107  138.4110  164.8090 C.ar    1  UNL1        0.0814
      2 C         141.9244  139.0242  166.1732 C.ar    1  UNL1        0.0380
      3 C         142.7966  140.2260  166.3849 C.ar    1  UNL1        0.1017
      4 C         143.5550  140.8147  165.2324 C.ar    1  UNL1        0.1004
      5 N         143.4413  140.2015  163.8682 N.ar    1  UNL1       -0.2905
      6 C         144.0648  140.5594  162.5517 C.ar    1  UNL1        0.0567
      7 C         145.0093  141.6981  162.3041 C.3     1  UNL1        0.0517
      8 C         143.5780  139.5788  161.5264 C.ar    1  UNL1        0.0730
      9 C         143.9503  139.5646  160.0733 C.3     1  UNL1        0.0534
     10 N         142.6536  138.6148  162.2091 N.ar    1  UNL1       -0.2299
     11 C         142.5692  138.9997  163.6565 C.ar    1  UNL1        0.1604
     12 N         142.9103  140.8393  167.7491 N.ar    1  UNL1       -0.2266
     13 C         142.6809  140.1358  169.0539 C.ar    1  UNL1        0.1021
     14 C         142.9022  141.1254  170.1592 C.ar    1  UNL1        0.0431
     15 C         143.2684  142.4406  169.5375 C.ar    1  UNL1        0.1221
     16 N         143.2734  142.2637  168.0480 N.ar    1  UNL1       -0.1634
     17 N         140.9385  137.2091  164.5972 N.pl3   1  UNL1       -0.3267
     18 H         141.3454  136.3206  164.4773 H       1  UNL1        0.1472
     19 C         139.4465  137.3609  164.5682 C.3     1  UNL1        0.1137
     20 C         138.4753  139.3508  166.5923 C.3     1  UNL1        0.0307
     21 C         138.3471  139.6474  165.1275 C.ar    1  UNL1       -0.0245
     22 C         137.7333  140.9391  164.6747 C.ar    1  UNL1       -0.0045
     23 C         137.6051  141.2357  163.2100 C.ar    1  UNL1       -0.0007
     24 C         138.0907  140.2407  162.1979 C.ar    1  UNL1       -0.0045
     25 C         138.7045  138.9492  162.6506 C.ar    1  UNL1       -0.0245
     26 C         139.1902  137.9542  161.6386 C.3     1  UNL1        0.0307
     27 C         138.8327  138.6525  164.1155 C.ar    1  UNL1       -0.0105
@<TRIPOS>BOND
     1    20    21    1
     2    21    22   ar
     3    22    23   ar
     4    23    24   ar
     5    24    25   ar
     6    25    26    1
     7    25    27   ar
     8    27    19    1
     9    19    17    1
    10    17     1    1
    11     1     2   ar
    12     2     3   ar
    13     3    12    1
    14    12    13   ar
    15    13    14   ar
    16    14    15   ar
    17    15    16   ar
    18     3     4   ar
    19     4     5   ar
    20     5     6   ar
    21     6     7    1
    22     6     8   ar
    23     8     9    1
    24     8    10   ar
    25    10    11   ar
    26    27    21   ar
    27    11     1   ar
    28    16    12   ar
    29    11     5   ar
    30    17    18    1
@<TRIPOS>MOLECULE
*****
 27 30 0 0 0
SMALL
GASTEIGER

@<TRIPOS>ATOM
      1 C         141.9641  140.4422  165.7229 C.ar    1  UNL1        0.0814
      2 C         141.4382  141.2710  164.5887 C.ar    1  UNL1        0.0380
      3 C         140.7209  142.5580  164.8699 C.ar    1  UNL1        0.1017
      4 C         140.5295  143.0162  166.2853 C.ar    1  UNL1        0.1004
      5 N         141.0554  142.1874  167.4195 N.ar    1  UNL1       -0.2905
      6 C         141.0174  142.3816  168.9064 C.ar    1  UNL1        0.0567
      7 C         140.3949  143.5395  169.6287 C.3     1  UNL1        0.0517
      8 C         141.7113  141.2146  169.5442 C.ar    1  UNL1        0.0730
      9 C         141.9044  141.0007  171.0163 C.3     1  UNL1        0.0534
     10 N         142.1780  140.2992  168.4515 N.ar    1  UNL1       -0.2299
     11 C         141.7727  140.9004  167.1383 C.ar    1  UNL1        0.1604
     12 N         140.1950  143.3868  163.7356 N.ar    1  UNL1       -0.2266
     13 C         139.6164  144.7663  163.8459 C.ar    1  UNL1        0.1021
     14 C         139.2191  145.2137  162.4704 C.ar    1  UNL1        0.0431
     15 C         139.5522  144.1106  161.5099 C.ar    1  UNL1        0.1221
     16 N         140.1553  142.9816  162.2919 N.ar    1  UNL1       -0.1634
     17 N         142.6814  139.1551  165.4418 N.pl3   1  UNL1       -0.3267
     18 H         143.6614  139.1096  165.5242 H       1  UNL1        0.1472
     19 C         141.9056  137.9375  165.0350 C.3     1  UNL1        0.1137
     20 C         138.9213  137.8246  165.3200 C.3     1  UNL1        0.0307
     21 C         139.5415  137.9202  163.9576 C.ar    1  UNL1       -0.0245
     22 C         138.6696  137.9594  162.7376 C.ar    1  UNL1       -0.0045
     23 C         139.2898  138.0550  161.3752 C.ar    1  UNL1       -0.0007
     24 C         140.7820  138.1114  161.2327 C.ar    1  UNL1       -0.0045
     25 C         141.6539  138.0722  162.4526 C.ar    1  UNL1       -0.0245
     26 C         143.1460  138.1287  162.3102 C.3     1  UNL1        0.0307
     27 C         141.0337  137.9767  163.8151 C.ar    1  UNL1       -0.0105
@<TRIPOS>BOND
     1    20    21    1
     2    21    22   ar
     3    22    23   ar
     4    23    24   ar
     5    24    25   ar
     6    25    26    1
     7    25    27   ar
     8    27    19    1
     9    19    17    1
    10    17     1    1
    11     1     2   ar
    12     2     3   ar
    13     3    12    1
    14    12    13   ar
    15    13    14   ar
    16    14    15   ar
    17    15    16   ar
    18     3     4   ar
    19     4     5   ar
    20     5     6   ar
    21     6     7    1
    22     6     8   ar
    23     8     9    1
    24     8    10   ar
    25    10    11   ar
    26    27    21   ar
    27    11     1   ar
    28    16    12   ar
    29    11     5   ar
    30    17    18    1
@<TRIPOS>MOLECULE
*****
 27 30 0 0 0
SMALL
GASTEIGER

@<TRIPOS>ATOM
      1 C         140.3744  142.3762  165.2704 C.ar    1  UNL1        0.0814
      2 C         140.5493  141.9756  166.7053 C.ar    1  UNL1        0.0380
      3 C         141.9152  141.6476  167.2311 C.ar    1  UNL1        0.1017
      4 C         143.1062  141.7203  166.3222 C.ar    1  UNL1        0.1004
      5 N         142.9313  142.1209  164.8873 N.ar    1  UNL1       -0.2905
      6 C         143.9113  142.2794  163.7628 C.ar    1  UNL1        0.0567
      7 C         145.3917  142.0519  163.8449 C.3     1  UNL1        0.0517
      8 C         143.1510  142.7054  162.5419 C.ar    1  UNL1        0.0730
      9 C         143.7377  142.9786  161.1887 C.3     1  UNL1        0.0534
     10 N         141.7011  142.8101  162.9119 N.ar    1  UNL1       -0.2299
     11 C         141.5654  142.4489  164.3614 C.ar    1  UNL1        0.1604
     12 N         142.0902  141.2470  168.6661 N.ar    1  UNL1       -0.2266
     13 C         141.4165  141.8808  169.8469 C.ar    1  UNL1        0.1021
     14 C         141.8795  141.1677  171.0826 C.ar    1  UNL1        0.0431
     15 C         142.8395  140.0931  170.6656 C.ar    1  UNL1        0.1221
     16 N         142.9697  140.1422  169.1720 N.ar    1  UNL1       -0.1634
     17 N         139.0084  142.7042  164.7444 N.pl3   1  UNL1       -0.3267
     18 H         138.7795  143.6338  164.5147 H       1  UNL1        0.1472
     19 C         137.9912  141.6159  164.5685 C.3     1  UNL1        0.1137
     20 C         138.6106  141.3024  161.6500 C.3     1  UNL1        0.0307
     21 C         138.7178  140.1229  162.5703 C.ar    1  UNL1       -0.0245
     22 C         139.1347  138.7865  162.0315 C.ar    1  UNL1       -0.0045
     23 C         139.2420  137.6070  162.9518 C.ar    1  UNL1       -0.0007
     24 C         138.9323  137.7637  164.4111 C.ar    1  UNL1       -0.0045
     25 C         138.5154  139.1000  164.9500 C.ar    1  UNL1       -0.0245
     26 C         138.2057  139.2568  166.4093 C.3     1  UNL1        0.0307
     27 C         138.4081  140.2797  164.0296 C.ar    1  UNL1       -0.0105
@<TRIPOS>BOND
     1    20    21    1
     2    21    22   ar
     3    22    23   ar
     4    23    24   ar
     5    24    25   ar
     6    25    26    1
     7    25    27   ar
     8    27    19    1
     9    19    17    1
    10    17     1    1
    11     1     2   ar
    12     2     3   ar
    13     3    12    1
    14    12    13   ar
    15    13    14   ar
    16    14    15   ar
    17    15    16   ar
    18     3     4   ar
    19     4     5   ar
    20     5     6   ar
    21     6     7    1
    22     6     8   ar
    23     8     9    1
    24     8    10   ar
    25    10    11   ar
    26    27    21   ar
    27    11     1   ar
    28    16    12   ar
    29    11     5   ar
    30    17    18    1
