@<TRIPOS>MOLECULE
*****
 36 39 0 0 0
SMALL
GASTEIGER

@<TRIPOS>ATOM
      1 C         139.5650  142.0893  163.7175 C.2     1  UNL1        0.1397
      2 C         139.5893  142.0014  162.2203 C.2     1  UNL1        0.1355
      3 N         140.4701  140.9941  161.5423 N.pl3   1  UNL1       -0.1998
      4 C         141.3265  140.0747  162.3614 C.2     1  UNL1        0.3442
      5 N         141.3023  140.1626  163.8586 N.2     1  UNL1       -0.0580
      6 C         140.4215  141.1699  164.5366 C.3     1  UNL1        0.2692
      7 H         140.4860  140.9365  160.5596 H       1  UNL1        0.2983
      8 C         140.3973  141.2577  166.0339 C.ar    1  UNL1        0.0371
      9 C         141.2538  142.2665  166.7400 C.ar    1  UNL1        0.0030
     10 C         141.2296  142.3544  168.2372 C.ar    1  UNL1        0.0295
     11 C         140.3488  141.4334  169.0284 C.ar    1  UNL1        0.1406
     12 F         140.3246  141.5212  170.5256 F       1  UNL1       -0.2042
     13 C         139.4922  140.4245  168.3224 C.ar    1  UNL1        0.0362
     14 C         139.5165  140.3367  166.8251 C.ar    1  UNL1        0.0372
     15 BR        138.6599  139.3279  166.1190 Br      1  UNL1       -0.0491
     16 C         142.2073  139.0675  161.6834 C.ar    1  UNL1        0.1931
     17 N         141.8762  138.3058  160.4343 N.ar    1  UNL1       -0.2297
     18 C         143.0381  137.4126  160.1144 C.ar    1  UNL1        0.1067
     19 C         144.0872  137.6222  161.1657 C.ar    1  UNL1        0.0577
     20 S         143.5737  138.6450  162.1354 S.2     1  UNL1       -0.0586
     21 C         138.6843  143.0965  164.3955 C.2     1  UNL1        0.3447
     22 O         137.2326  142.7930  164.6199 O.2     1  UNL1       -0.2450
     23 O         139.2553  144.4073  164.8491 O.3     1  UNL1       -0.4455
     24 C         141.6755  144.9089  164.0486 C.3     1  UNL1        0.0513
     25 C         140.1995  145.1617  163.9607 C.3     1  UNL1        0.2089
     26 C         138.7328  142.9208  161.4010 C.3     1  UNL1        0.1407
     27 N         138.9189  142.9931  159.9144 N.3     1  UNL1       -0.2585
     28 C         138.2573  141.9820  159.0257 C.3     1  UNL1        0.1052
     29 C         138.4434  142.0543  157.5389 C.3     1  UNL1        0.1594
     30 O         139.2911  143.1377  156.9410 O.3     1  UNL1       -0.3530
     31 C         139.9527  144.1489  157.8298 C.3     1  UNL1        0.1352
     32 C         140.8004  145.2323  157.2319 C.3     1  UNL1        0.0339
     33 C         139.7666  144.0766  159.3164 C.3     1  UNL1        0.1221
     34 C         140.4282  145.0878  160.2051 C.2     1  UNL1        0.0673
     35 O         139.6396  146.2462  160.7400 O.co2   1  UNL1       -0.5477
     36 O         141.8784  144.9405  160.5589 O.co2   1  UNL1       -0.5477
@<TRIPOS>UNITY_ATOM_ATTR
35 1
charge -1
@<TRIPOS>BOND
     1    24    25    1
     2    25    23    1
     3    23    21    1
     4    21    22    2
     5    21     1    1
     6     1     2    2
     7     2    26    1
     8    26    27    1
     9    27    28    1
    10    28    29    1
    11    29    30    1
    12    30    31    1
    13    31    32    1
    14    31    33    1
    15    33    34    1
    16    34    35   ar
    17    34    36   ar
    18     2     3    1
    19     3     4    1
    20     4    16    1
    21    16    17   ar
    22    17    18   ar
    23    18    19   ar
    24    19    20   ar
    25     4     5    2
    26     5     6    1
    27     6     8    1
    28     8     9   ar
    29     9    10   ar
    30    10    11   ar
    31    11    12    1
    32    11    13   ar
    33    13    14   ar
    34    14    15    1
    35     6     1    1
    36    14     8   ar
    37    33    27    1
    38    20    16   ar
    39     3     7    1
@<TRIPOS>MOLECULE
*****
 36 39 0 0 0
SMALL
GASTEIGER

@<TRIPOS>ATOM
      1 C         140.7597  140.4324  164.5346 C.2     1  UNL1        0.1397
      2 C         140.4747  140.3702  163.0633 C.2     1  UNL1        0.1355
      3 N         140.2683  141.6359  162.2851 N.pl3   1  UNL1       -0.1998
      4 C         140.3469  142.9637  162.9784 C.2     1  UNL1        0.3442
      5 N         140.6318  143.0259  164.4497 N.2     1  UNL1       -0.0580
      6 C         140.8382  141.7602  165.2278 C.3     1  UNL1        0.2692
      7 H         140.0813  141.5950  161.3194 H       1  UNL1        0.2983
      8 C         141.1232  141.8225  166.6992 C.ar    1  UNL1        0.0371
      9 C         140.0252  141.5620  167.6875 C.ar    1  UNL1        0.0030
     10 C         140.3102  141.6243  169.1588 C.ar    1  UNL1        0.0295
     11 C         141.6931  141.9469  169.6420 C.ar    1  UNL1        0.1406
     12 F         141.9780  142.0092  171.1133 F       1  UNL1       -0.2042
     13 C         142.7911  142.2074  168.6538 C.ar    1  UNL1        0.0362
     14 C         142.5061  142.1451  167.1823 C.ar    1  UNL1        0.0372
     15 BR        143.6041  142.4056  166.1941 Br      1  UNL1       -0.0491
     16 C         140.1405  144.2294  162.2002 C.ar    1  UNL1        0.1931
     17 N         139.5569  145.5053  162.7307 N.ar    1  UNL1       -0.2297
     18 C         139.5372  146.5059  161.6134 C.ar    1  UNL1        0.1067
     19 C         140.1085  145.8483  160.3922 C.ar    1  UNL1        0.0577
     20 S         140.4814  144.4414  160.7549 S.2     1  UNL1       -0.0586
     21 C         140.9661  139.1667  165.3127 C.2     1  UNL1        0.3447
     22 O         142.3409  138.7881  165.7780 O.2     1  UNL1       -0.2450
     23 O         139.7977  138.2796  165.6256 O.3     1  UNL1       -0.4455
     24 C         137.6551  138.5934  167.0612 C.3     1  UNL1        0.0513
     25 C         138.4328  138.8740  165.8096 C.3     1  UNL1        0.2089
     26 C         140.3961  139.0423  162.3700 C.3     1  UNL1        0.1407
     27 N         141.4946  138.6143  161.4426 N.3     1  UNL1       -0.2585
     28 C         142.7353  137.9762  161.9936 C.3     1  UNL1        0.1052
     29 C         143.8338  137.5481  161.0661 C.3     1  UNL1        0.1594
     30 O         143.6916  137.7582  159.5877 O.3     1  UNL1       -0.3530
     31 C         142.4509  138.3963  159.0368 C.3     1  UNL1        0.1352
     32 C         142.3087  138.6063  157.5584 C.3     1  UNL1        0.0339
     33 C         141.3524  138.8243  159.9641 C.3     1  UNL1        0.1221
     34 C         140.1118  139.4624  159.4132 C.2     1  UNL1        0.0673
     35 O         139.9814  140.9567  159.3954 O.co2   1  UNL1       -0.5477
     36 O         139.0015  138.6063  158.8800 O.co2   1  UNL1       -0.5477
@<TRIPOS>UNITY_ATOM_ATTR
35 1
charge -1
@<TRIPOS>BOND
     1    24    25    1
     2    25    23    1
     3    23    21    1
     4    21    22    2
     5    21     1    1
     6     1     2    2
     7     2    26    1
     8    26    27    1
     9    27    28    1
    10    28    29    1
    11    29    30    1
    12    30    31    1
    13    31    32    1
    14    31    33    1
    15    33    34    1
    16    34    35   ar
    17    34    36   ar
    18     2     3    1
    19     3     4    1
    20     4    16    1
    21    16    17   ar
    22    17    18   ar
    23    18    19   ar
    24    19    20   ar
    25     4     5    2
    26     5     6    1
    27     6     8    1
    28     8     9   ar
    29     9    10   ar
    30    10    11   ar
    31    11    12    1
    32    11    13   ar
    33    13    14   ar
    34    14    15    1
    35     6     1    1
    36    14     8   ar
    37    33    27    1
    38    20    16   ar
    39     3     7    1
@<TRIPOS>MOLECULE
*****
 36 39 0 0 0
SMALL
GASTEIGER

@<TRIPOS>ATOM
      1 C         139.1467  141.4222  160.8441 C.2     1  UNL1        0.1397
      2 C         139.2787  140.8089  159.4816 C.2     1  UNL1        0.1355
      3 N         139.4051  141.6877  158.2726 N.pl3   1  UNL1       -0.1998
      4 C         139.3994  143.1798  158.4260 C.2     1  UNL1        0.3442
      5 N         139.2674  143.7931  159.7885 N.2     1  UNL1       -0.0580
      6 C         139.1411  142.9143  160.9976 C.3     1  UNL1        0.2692
      7 H         139.4917  141.2852  157.3783 H       1  UNL1        0.2983
      8 C         139.0091  143.5277  162.3601 C.ar    1  UNL1        0.0371
      9 C         137.6687  143.5823  163.0313 C.ar    1  UNL1        0.0030
     10 C         137.5367  144.1956  164.3938 C.ar    1  UNL1        0.0295
     11 C         138.7450  144.7544  165.0851 C.ar    1  UNL1        0.1406
     12 F         138.6129  145.3677  166.4475 F       1  UNL1       -0.2042
     13 C         140.0853  144.6997  164.4139 C.ar    1  UNL1        0.0362
     14 C         140.2173  144.0864  163.0513 C.ar    1  UNL1        0.0372
     15 BR        141.5577  144.0317  162.3801 Br      1  UNL1       -0.0491
     16 C         139.5258  144.0586  157.2170 C.ar    1  UNL1        0.1931
     17 N         140.1569  145.4188  157.1778 N.ar    1  UNL1       -0.2297
     18 C         140.0644  145.9324  155.7714 C.ar    1  UNL1        0.1067
     19 C         139.3761  144.8896  154.9415 C.ar    1  UNL1        0.0577
     20 S         139.0432  143.7315  155.8350 S.2     1  UNL1       -0.0586
     21 C         139.0204  140.5434  162.0531 C.2     1  UNL1        0.3447
     22 O         137.6637  140.1296  162.5410 O.2     1  UNL1       -0.2450
     23 O         140.2507  140.0785  162.7743 O.3     1  UNL1       -0.4455
     24 C         139.5858  140.9903  165.1145 C.3     1  UNL1        0.0513
     25 C         140.6356  140.7051  164.0816 C.3     1  UNL1        0.2089
     26 C         139.2844  139.3168  159.3281 C.3     1  UNL1        0.1407
     27 N         140.5507  138.6063  158.9520 N.3     1  UNL1       -0.2585
     28 C         141.6192  138.3827  159.9808 C.3     1  UNL1        0.1052
     29 C         142.8856  137.6722  159.6046 C.3     1  UNL1        0.1594
     30 O         143.0835  137.1853  158.1997 O.3     1  UNL1       -0.3530
     31 C         142.0151  137.4090  157.1709 C.3     1  UNL1        0.1352
     32 C         142.2130  136.9221  155.7660 C.3     1  UNL1        0.0339
     33 C         140.7487  138.1194  157.5470 C.3     1  UNL1        0.1221
     34 C         139.6802  138.3431  156.5183 C.2     1  UNL1        0.0673
     35 O         138.7714  137.2167  156.1238 O.co2   1  UNL1       -0.5477
     36 O         139.5206  139.6929  155.8840 O.co2   1  UNL1       -0.5477
@<TRIPOS>UNITY_ATOM_ATTR
35 1
charge -1
@<TRIPOS>BOND
     1    24    25    1
     2    25    23    1
     3    23    21    1
     4    21    22    2
     5    21     1    1
     6     1     2    2
     7     2    26    1
     8    26    27    1
     9    27    28    1
    10    28    29    1
    11    29    30    1
    12    30    31    1
    13    31    32    1
    14    31    33    1
    15    33    34    1
    16    34    35   ar
    17    34    36   ar
    18     2     3    1
    19     3     4    1
    20     4    16    1
    21    16    17   ar
    22    17    18   ar
    23    18    19   ar
    24    19    20   ar
    25     4     5    2
    26     5     6    1
    27     6     8    1
    28     8     9   ar
    29     9    10   ar
    30    10    11   ar
    31    11    12    1
    32    11    13   ar
    33    13    14   ar
    34    14    15    1
    35     6     1    1
    36    14     8   ar
    37    33    27    1
    38    20    16   ar
    39     3     7    1
@<TRIPOS>MOLECULE
*****
 36 39 0 0 0
SMALL
GASTEIGER

@<TRIPOS>ATOM
      1 C         142.8064  140.3006  159.4396 C.2     1  UNL1        0.1397
      2 C         143.2124  139.3082  158.3907 C.2     1  UNL1        0.1355
      3 N         144.2381  139.6818  157.3619 N.pl3   1  UNL1       -0.1998
      4 C         144.8578  141.0476  157.3820 C.2     1  UNL1        0.3442
      5 N         144.4517  142.0399  158.4310 N.2     1  UNL1       -0.0580
      6 C         143.4260  141.6664  159.4598 C.3     1  UNL1        0.2692
      7 H         144.5046  139.0305  156.6734 H       1  UNL1        0.2983
      8 C         143.0200  142.6588  160.5088 C.ar    1  UNL1        0.0371
      9 C         141.8745  143.5931  160.2540 C.ar    1  UNL1        0.0030
     10 C         141.4685  144.5854  161.3030 C.ar    1  UNL1        0.0295
     11 C         142.2079  144.6435  162.6068 C.ar    1  UNL1        0.1406
     12 F         141.8019  145.6359  163.6557 F       1  UNL1       -0.2042
     13 C         143.3534  143.7093  162.8616 C.ar    1  UNL1        0.0362
     14 C         143.7595  142.7169  161.8126 C.ar    1  UNL1        0.0372
     15 BR        144.9050  141.7826  162.0674 Br      1  UNL1       -0.0491
     16 C         145.8835  141.4211  156.3532 C.ar    1  UNL1        0.1931
     17 N         147.0389  142.3554  156.5588 N.ar    1  UNL1       -0.2297
     18 C         147.8033  142.4376  155.2709 C.ar    1  UNL1        0.1067
     19 C         147.1204  141.5543  154.2692 C.ar    1  UNL1        0.0577
     20 S         145.9338  140.9261  154.9382 S.2     1  UNL1       -0.0586
     21 C         141.7807  139.9270  160.4684 C.2     1  UNL1        0.3447
     22 O         140.3309  140.2247  160.2246 O.2     1  UNL1       -0.2450
     23 O         142.2048  139.2558  161.7410 O.3     1  UNL1       -0.4455
     24 C         141.1195  137.4099  163.2125 C.3     1  UNL1        0.0513
     25 C         141.8677  137.8132  161.9765 C.3     1  UNL1        0.2089
     26 C         142.5927  137.9423  158.3704 C.3     1  UNL1        0.1407
     27 N         141.6965  137.5420  157.2362 N.3     1  UNL1       -0.2585
     28 C         140.2614  137.9782  157.2244 C.3     1  UNL1        0.1052
     29 C         139.3652  137.5779  156.0900 C.3     1  UNL1        0.1594
     30 O         139.9041  136.7414  154.9676 O.3     1  UNL1       -0.3530
     31 C         141.3393  136.3053  154.9795 C.3     1  UNL1        0.1352
     32 C         141.8782  135.4688  153.8570 C.3     1  UNL1        0.0339
     33 C         142.2355  136.7055  156.1137 C.3     1  UNL1        0.1221
     34 C         143.6706  136.2694  156.1255 C.2     1  UNL1        0.0673
     35 O         144.7433  137.2071  155.6564 O.co2   1  UNL1       -0.5477
     36 O         144.0330  134.8956  156.6064 O.co2   1  UNL1       -0.5477
@<TRIPOS>UNITY_ATOM_ATTR
35 1
charge -1
@<TRIPOS>BOND
     1    24    25    1
     2    25    23    1
     3    23    21    1
     4    21    22    2
     5    21     1    1
     6     1     2    2
     7     2    26    1
     8    26    27    1
     9    27    28    1
    10    28    29    1
    11    29    30    1
    12    30    31    1
    13    31    32    1
    14    31    33    1
    15    33    34    1
    16    34    35   ar
    17    34    36   ar
    18     2     3    1
    19     3     4    1
    20     4    16    1
    21    16    17   ar
    22    17    18   ar
    23    18    19   ar
    24    19    20   ar
    25     4     5    2
    26     5     6    1
    27     6     8    1
    28     8     9   ar
    29     9    10   ar
    30    10    11   ar
    31    11    12    1
    32    11    13   ar
    33    13    14   ar
    34    14    15    1
    35     6     1    1
    36    14     8   ar
    37    33    27    1
    38    20    16   ar
    39     3     7    1
@<TRIPOS>MOLECULE
*****
 36 39 0 0 0
SMALL
GASTEIGER

@<TRIPOS>ATOM
      1 C         141.1898  140.0249  162.4328 C.2     1  UNL1        0.1397
      2 C         141.7812  140.6229  161.1908 C.2     1  UNL1        0.1355
      3 N         140.8929  140.9925  160.0399 N.pl3   1  UNL1       -0.1998
      4 C         139.4132  140.7642  160.1311 C.2     1  UNL1        0.3442
      5 N         138.8218  140.1663  161.3731 N.2     1  UNL1       -0.0580
      6 C         139.7101  139.7966  162.5240 C.3     1  UNL1        0.2692
      7 H         141.2811  141.3850  159.2248 H       1  UNL1        0.2983
      8 C         139.1186  139.1987  163.7660 C.ar    1  UNL1        0.0371
      9 C         139.1088  137.7101  163.9504 C.ar    1  UNL1        0.0030
     10 C         138.5173  137.1121  165.1924 C.ar    1  UNL1        0.0295
     11 C         137.9356  138.0027  166.2500 C.ar    1  UNL1        0.1406
     12 F         137.3442  137.4047  167.4920 F       1  UNL1       -0.2042
     13 C         137.9454  139.4913  166.0656 C.ar    1  UNL1        0.0362
     14 C         138.5369  140.0893  164.8236 C.ar    1  UNL1        0.0372
     15 BR        138.5468  141.5778  164.6392 Br      1  UNL1       -0.0491
     16 C         138.5250  141.1338  158.9803 C.ar    1  UNL1        0.1931
     17 N         137.5636  140.2202  158.2797 N.ar    1  UNL1       -0.2297
     18 C         136.8866  141.0037  157.1944 C.ar    1  UNL1        0.1067
     19 C         137.4296  142.4016  157.2243 C.ar    1  UNL1        0.0577
     20 S         138.4422  142.4821  158.3281 S.2     1  UNL1       -0.0586
     21 C         142.0780  139.6553  163.5836 C.2     1  UNL1        0.3447
     22 O         142.8969  138.3999  163.5259 O.2     1  UNL1       -0.2450
     23 O         142.1474  140.5411  164.7921 O.3     1  UNL1       -0.4455
     24 C         141.3523  140.7273  167.2585 C.3     1  UNL1        0.0513
     25 C         142.0208  139.9488  166.1644 C.3     1  UNL1        0.2089
     26 C         143.2610  140.8512  161.0995 C.3     1  UNL1        0.1407
     27 N         143.9715  141.6065  162.1833 N.3     1  UNL1       -0.2585
     28 C         145.1286  140.9773  162.9012 C.3     1  UNL1        0.1052
     29 C         145.8391  141.7327  163.9850 C.3     1  UNL1        0.1594
     30 O         145.3926  143.1171  164.3509 O.3     1  UNL1       -0.3530
     31 C         144.2356  143.7463  163.6330 C.3     1  UNL1        0.1352
     32 C         143.7891  145.1307  163.9989 C.3     1  UNL1        0.0339
     33 C         143.5250  142.9910  162.5492 C.3     1  UNL1        0.1221
     34 C         142.3680  143.6202  161.8313 C.2     1  UNL1        0.0673
     35 O         140.9826  143.5033  162.3946 O.co2   1  UNL1       -0.5477
     36 O         142.5963  144.3663  160.5502 O.co2   1  UNL1       -0.5477
@<TRIPOS>UNITY_ATOM_ATTR
35 1
charge -1
@<TRIPOS>BOND
     1    24    25    1
     2    25    23    1
     3    23    21    1
     4    21    22    2
     5    21     1    1
     6     1     2    2
     7     2    26    1
     8    26    27    1
     9    27    28    1
    10    28    29    1
    11    29    30    1
    12    30    31    1
    13    31    32    1
    14    31    33    1
    15    33    34    1
    16    34    35   ar
    17    34    36   ar
    18     2     3    1
    19     3     4    1
    20     4    16    1
    21    16    17   ar
    22    17    18   ar
    23    18    19   ar
    24    19    20   ar
    25     4     5    2
    26     5     6    1
    27     6     8    1
    28     8     9   ar
    29     9    10   ar
    30    10    11   ar
    31    11    12    1
    32    11    13   ar
    33    13    14   ar
    34    14    15    1
    35     6     1    1
    36    14     8   ar
    37    33    27    1
    38    20    16   ar
    39     3     7    1
@<TRIPOS>MOLECULE
*****
 36 39 0 0 0
SMALL
GASTEIGER

@<TRIPOS>ATOM
      1 C         142.3599  140.6018  164.3254 C.2     1  UNL1        0.1397
      2 C         142.2719  140.6210  162.8281 C.2     1  UNL1        0.1355
      3 N         141.7305  141.8298  162.1240 N.pl3   1  UNL1       -0.1998
      4 C         141.2771  143.0194  162.9172 C.2     1  UNL1        0.3442
      5 N         141.3651  143.0002  164.4144 N.2     1  UNL1       -0.0580
      6 C         141.9065  141.7914  165.1185 C.3     1  UNL1        0.2692
      7 H         141.6728  141.8423  161.1413 H       1  UNL1        0.2983
      8 C         141.9944  141.7723  166.6159 C.ar    1  UNL1        0.0371
      9 C         143.2338  142.2672  167.3007 C.ar    1  UNL1        0.0030
     10 C         143.3218  142.2481  168.7980 C.ar    1  UNL1        0.0295
     11 C         142.1704  141.7341  169.6105 C.ar    1  UNL1        0.1406
     12 F         142.2584  141.7150  171.1078 F       1  UNL1       -0.2042
     13 C         140.9310  141.2392  168.9257 C.ar    1  UNL1        0.0362
     14 C         140.8430  141.2583  167.4283 C.ar    1  UNL1        0.0372
     15 BR        139.6037  140.7634  166.7435 Br      1  UNL1       -0.0491
     16 C         140.7357  144.2282  162.2131 C.ar    1  UNL1        0.1931
     17 N         140.9316  144.5665  160.7649 N.ar    1  UNL1       -0.2297
     18 C         140.2203  145.8583  160.4904 C.ar    1  UNL1        0.1067
     19 C         139.5849  146.3184  161.7688 C.ar    1  UNL1        0.0577
     20 S         139.9034  145.3109  162.8335 S.2     1  UNL1       -0.0586
     21 C         142.9013  139.3930  165.0295 C.2     1  UNL1        0.3447
     22 O         144.3834  139.1965  165.1502 O.2     1  UNL1       -0.2450
     23 O         141.9605  138.3808  165.6128 O.3     1  UNL1       -0.4455
     24 C         139.6189  137.5779  164.8241 C.3     1  UNL1        0.0513
     25 C         141.1139  137.5351  164.7085 C.3     1  UNL1        0.2089
     26 C         142.7253  139.4313  162.0348 C.3     1  UNL1        0.1407
     27 N         142.5354  139.4052  160.5472 N.3     1  UNL1       -0.2585
     28 C         143.7091  139.6170  159.6374 C.3     1  UNL1        0.1052
     29 C         143.5191  139.5909  158.1497 C.3     1  UNL1        0.1594
     30 O         142.1555  139.3530  157.5718 O.3     1  UNL1       -0.3530
     31 C         140.9819  139.1412  158.4815 C.3     1  UNL1        0.1352
     32 C         139.6183  138.9033  157.9036 C.3     1  UNL1        0.0339
     33 C         141.1718  139.1673  159.9692 C.3     1  UNL1        0.1221
     34 C         139.9981  138.9555  160.8790 C.2     1  UNL1        0.0673
     35 O         139.6668  137.5763  161.3670 O.co2   1  UNL1       -0.5477
     36 O         139.1558  140.1228  161.3007 O.co2   1  UNL1       -0.5477
@<TRIPOS>UNITY_ATOM_ATTR
35 1
charge -1
@<TRIPOS>BOND
     1    24    25    1
     2    25    23    1
     3    23    21    1
     4    21    22    2
     5    21     1    1
     6     1     2    2
     7     2    26    1
     8    26    27    1
     9    27    28    1
    10    28    29    1
    11    29    30    1
    12    30    31    1
    13    31    32    1
    14    31    33    1
    15    33    34    1
    16    34    35   ar
    17    34    36   ar
    18     2     3    1
    19     3     4    1
    20     4    16    1
    21    16    17   ar
    22    17    18   ar
    23    18    19   ar
    24    19    20   ar
    25     4     5    2
    26     5     6    1
    27     6     8    1
    28     8     9   ar
    29     9    10   ar
    30    10    11   ar
    31    11    12    1
    32    11    13   ar
    33    13    14   ar
    34    14    15    1
    35     6     1    1
    36    14     8   ar
    37    33    27    1
    38    20    16   ar
    39     3     7    1
@<TRIPOS>MOLECULE
*****
 36 39 0 0 0
SMALL
GASTEIGER

@<TRIPOS>ATOM
      1 C         142.1264  143.1241  160.4403 C.2     1  UNL1        0.1397
      2 C         143.0486  143.0595  159.2590 C.2     1  UNL1        0.1355
      3 N         142.7171  143.8152  158.0065 N.pl3   1  UNL1       -0.1998
      4 C         141.4634  144.6357  157.9352 C.2     1  UNL1        0.3442
      5 N         140.5413  144.7004  159.1164 N.2     1  UNL1       -0.0580
      6 C         140.8728  143.9446  160.3690 C.3     1  UNL1        0.2692
      7 H         143.3224  143.7728  157.2312 H       1  UNL1        0.2983
      8 C         139.9505  144.0093  161.5503 C.ar    1  UNL1        0.0371
      9 C         140.2046  145.0009  162.6467 C.ar    1  UNL1        0.0030
     10 C         139.2825  145.0657  163.8279 C.ar    1  UNL1        0.0295
     11 C         138.1061  144.1388  163.9128 C.ar    1  UNL1        0.1406
     12 F         137.1839  144.2035  165.0940 F       1  UNL1       -0.2042
     13 C         137.8520  143.1472  162.8164 C.ar    1  UNL1        0.0362
     14 C         138.7742  143.0825  161.6351 C.ar    1  UNL1        0.0372
     15 BR        138.5201  142.0908  160.5387 Br      1  UNL1       -0.0491
     16 C         141.1319  145.3915  156.6826 C.ar    1  UNL1        0.1931
     17 N         141.8261  145.2539  155.3600 N.ar    1  UNL1       -0.2297
     18 C         141.1712  146.1950  154.3927 C.ar    1  UNL1        0.1067
     19 C         140.0724  146.9142  155.1175 C.ar    1  UNL1        0.0577
     20 S         140.0481  146.4176  156.5327 S.2     1  UNL1       -0.0586
     21 C         142.4579  142.3683  161.6928 C.2     1  UNL1        0.3447
     22 O         141.7657  141.0716  161.9917 O.2     1  UNL1       -0.2450
     23 O         143.4815  142.9093  162.6465 O.3     1  UNL1       -0.4455
     24 C         143.6462  145.1670  163.9216 C.3     1  UNL1        0.0513
     25 C         143.7967  144.3758  162.6561 C.3     1  UNL1        0.2089
     26 C         144.3023  142.2389  159.3303 C.3     1  UNL1        0.1407
     27 N         145.0430  141.8904  158.0734 N.3     1  UNL1       -0.2585
     28 C         146.2289  142.7060  157.6510 C.3     1  UNL1        0.1052
     29 C         146.9696  142.3574  156.3941 C.3     1  UNL1        0.1594
     30 O         146.5244  141.1933  155.5595 O.3     1  UNL1       -0.3530
     31 C         145.3385  140.3777  155.9819 C.3     1  UNL1        0.1352
     32 C         144.8932  139.2135  155.1474 C.3     1  UNL1        0.0339
     33 C         144.5978  140.7262  157.2388 C.3     1  UNL1        0.1221
     34 C         143.4119  139.9106  157.6612 C.2     1  UNL1        0.0673
     35 O         143.5927  138.7540  158.5992 O.co2   1  UNL1       -0.5477
     36 O         142.0452  140.2515  157.1456 O.co2   1  UNL1       -0.5477
@<TRIPOS>UNITY_ATOM_ATTR
35 1
charge -1
@<TRIPOS>BOND
     1    24    25    1
     2    25    23    1
     3    23    21    1
     4    21    22    2
     5    21     1    1
     6     1     2    2
     7     2    26    1
     8    26    27    1
     9    27    28    1
    10    28    29    1
    11    29    30    1
    12    30    31    1
    13    31    32    1
    14    31    33    1
    15    33    34    1
    16    34    35   ar
    17    34    36   ar
    18     2     3    1
    19     3     4    1
    20     4    16    1
    21    16    17   ar
    22    17    18   ar
    23    18    19   ar
    24    19    20   ar
    25     4     5    2
    26     5     6    1
    27     6     8    1
    28     8     9   ar
    29     9    10   ar
    30    10    11   ar
    31    11    12    1
    32    11    13   ar
    33    13    14   ar
    34    14    15    1
    35     6     1    1
    36    14     8   ar
    37    33    27    1
    38    20    16   ar
    39     3     7    1
@<TRIPOS>MOLECULE
*****
 36 39 0 0 0
SMALL
GASTEIGER

@<TRIPOS>ATOM
      1 C         141.0304  140.1240  164.3419 C.2     1  UNL1        0.1397
      2 C         140.9227  140.1407  162.8459 C.2     1  UNL1        0.1355
      3 N         140.6848  141.4346  162.1255 N.pl3   1  UNL1       -0.1998
      4 C         140.5546  142.7119  162.9010 C.2     1  UNL1        0.3442
      5 N         140.6622  142.6953  164.3970 N.2     1  UNL1       -0.0580
      6 C         140.9001  141.4013  165.1175 C.3     1  UNL1        0.2692
      7 H         140.6142  141.4455  161.1436 H       1  UNL1        0.2983
      8 C         141.0078  141.3847  166.6136 C.ar    1  UNL1        0.0371
      9 C         139.8552  140.9014  167.4431 C.ar    1  UNL1        0.0030
     10 C         139.9628  140.8848  168.9391 C.ar    1  UNL1        0.0295
     11 C         141.2230  141.3515  169.6057 C.ar    1  UNL1        0.1406
     12 F         141.3306  141.3349  171.1017 F       1  UNL1       -0.2042
     13 C         142.3755  141.8348  168.7761 C.ar    1  UNL1        0.0362
     14 C         142.2679  141.8514  167.2801 C.ar    1  UNL1        0.0372
     15 BR        143.4204  142.3347  166.4505 Br      1  UNL1       -0.0491
     16 C         140.3167  144.0059  162.1805 C.ar    1  UNL1        0.1931
     17 N         139.6990  145.2408  162.7666 N.ar    1  UNL1       -0.2297
     18 C         139.6553  146.2902  161.6958 C.ar    1  UNL1        0.1067
     19 C         140.2459  145.7039  160.4478 C.ar    1  UNL1        0.0577
     20 S         140.6546  144.2921  160.7474 S.2     1  UNL1       -0.0586
     21 C         141.2683  138.8301  165.0624 C.2     1  UNL1        0.3447
     22 O         142.6223  138.5267  165.6320 O.2     1  UNL1       -0.2450
     23 O         140.1521  137.8395  165.2134 O.3     1  UNL1       -0.4455
     24 C         137.8947  137.9916  166.4906 C.3     1  UNL1        0.0513
     25 C         138.7317  138.3157  165.2887 C.3     1  UNL1        0.2089
     26 C         141.0530  138.8633  162.0703 C.3     1  UNL1        0.1407
     27 N         140.9717  138.8836  160.5727 N.3     1  UNL1       -0.2585
     28 C         139.6848  138.5331  159.8866 C.3     1  UNL1        0.1052
     29 C         139.6036  138.5535  158.3888 C.3     1  UNL1        0.1594
     30 O         140.8093  138.9243  157.5774 O.3     1  UNL1       -0.3530
     31 C         142.0963  139.2748  158.2635 C.3     1  UNL1        0.1352
     32 C         143.3021  139.6457  157.4520 C.3     1  UNL1        0.0339
     33 C         142.1776  139.2545  159.7611 C.3     1  UNL1        0.1221
     34 C         143.4646  139.6050  160.4473 C.2     1  UNL1        0.0673
     35 O         144.5120  138.5525  160.6600 O.co2   1  UNL1       -0.5477
     36 O         143.7042  141.0080  160.9207 O.co2   1  UNL1       -0.5477
@<TRIPOS>UNITY_ATOM_ATTR
35 1
charge -1
@<TRIPOS>BOND
     1    24    25    1
     2    25    23    1
     3    23    21    1
     4    21    22    2
     5    21     1    1
     6     1     2    2
     7     2    26    1
     8    26    27    1
     9    27    28    1
    10    28    29    1
    11    29    30    1
    12    30    31    1
    13    31    32    1
    14    31    33    1
    15    33    34    1
    16    34    35   ar
    17    34    36   ar
    18     2     3    1
    19     3     4    1
    20     4    16    1
    21    16    17   ar
    22    17    18   ar
    23    18    19   ar
    24    19    20   ar
    25     4     5    2
    26     5     6    1
    27     6     8    1
    28     8     9   ar
    29     9    10   ar
    30    10    11   ar
    31    11    12    1
    32    11    13   ar
    33    13    14   ar
    34    14    15    1
    35     6     1    1
    36    14     8   ar
    37    33    27    1
    38    20    16   ar
    39     3     7    1
@<TRIPOS>MOLECULE
*****
 36 39 0 0 0
SMALL
GASTEIGER

@<TRIPOS>ATOM
      1 C         142.3912  139.7613  160.4811 C.2     1  UNL1        0.1397
      2 C         143.1762  140.0766  159.2424 C.2     1  UNL1        0.1355
      3 N         143.3856  139.0204  158.1981 N.pl3   1  UNL1       -0.1998
      4 C         142.8101  137.6489  158.3925 C.2     1  UNL1        0.3442
      5 N         142.0252  137.3337  159.6312 N.2     1  UNL1       -0.0580
      6 C         141.8157  138.3899  160.6755 C.3     1  UNL1        0.2692
      7 H         143.9008  139.2273  157.3851 H       1  UNL1        0.2983
      8 C         141.0308  138.0745  161.9143 C.ar    1  UNL1        0.0371
      9 C         141.7351  137.5806  163.1431 C.ar    1  UNL1        0.0030
     10 C         140.9502  137.2652  164.3818 C.ar    1  UNL1        0.0295
     11 C         139.4609  137.4439  164.3918 C.ar    1  UNL1        0.1406
     12 F         138.6760  137.1286  165.6305 F       1  UNL1       -0.2042
     13 C         138.7565  137.9379  163.1630 C.ar    1  UNL1        0.0362
     14 C         139.5415  138.2532  161.9242 C.ar    1  UNL1        0.0372
     15 BR        138.8371  138.7472  160.6955 Br      1  UNL1       -0.0491
     16 C         143.0195  136.5927  157.3482 C.ar    1  UNL1        0.1931
     17 N         143.1402  135.1185  157.5970 N.ar    1  UNL1       -0.2297
     18 C         143.3403  134.4399  156.2743 C.ar    1  UNL1        0.1067
     19 C         143.3433  135.4949  155.2080 C.ar    1  UNL1        0.0577
     20 S         143.1450  136.8253  155.8717 S.2     1  UNL1       -0.0586
     21 C         142.1818  140.8175  161.5254 C.2     1  UNL1        0.3447
     22 O         141.0178  141.7575  161.4186 O.2     1  UNL1       -0.2450
     23 O         143.1364  140.9338  162.6766 O.3     1  UNL1       -0.4455
     24 C         144.8918  139.5401  163.9905 C.3     1  UNL1        0.0513
     25 C         144.3904  140.1108  162.6971 C.3     1  UNL1        0.2089
     26 C         143.7517  141.4481  159.0480 C.3     1  UNL1        0.1407
     27 N         143.3415  142.2727  157.8641 N.3     1  UNL1       -0.2585
     28 C         142.0736  143.0730  157.9106 C.3     1  UNL1        0.1052
     29 C         141.6634  143.8976  156.7265 C.3     1  UNL1        0.1594
     30 O         142.5210  143.9219  155.4962 O.3     1  UNL1       -0.3530
     31 C         143.7888  143.1216  155.4497 C.3     1  UNL1        0.1352
     32 C         144.6464  143.1460  154.2193 C.3     1  UNL1        0.0339
     33 C         144.1991  142.2971  156.6336 C.3     1  UNL1        0.1221
     34 C         145.4669  141.4968  156.5871 C.2     1  UNL1        0.0673
     35 O         146.7847  142.1635  156.8498 O.co2   1  UNL1       -0.5477
     36 O         145.4170  140.0299  156.2780 O.co2   1  UNL1       -0.5477
@<TRIPOS>UNITY_ATOM_ATTR
35 1
charge -1
@<TRIPOS>BOND
     1    24    25    1
     2    25    23    1
     3    23    21    1
     4    21    22    2
     5    21     1    1
     6     1     2    2
     7     2    26    1
     8    26    27    1
     9    27    28    1
    10    28    29    1
    11    29    30    1
    12    30    31    1
    13    31    32    1
    14    31    33    1
    15    33    34    1
    16    34    35   ar
    17    34    36   ar
    18     2     3    1
    19     3     4    1
    20     4    16    1
    21    16    17   ar
    22    17    18   ar
    23    18    19   ar
    24    19    20   ar
    25     4     5    2
    26     5     6    1
    27     6     8    1
    28     8     9   ar
    29     9    10   ar
    30    10    11   ar
    31    11    12    1
    32    11    13   ar
    33    13    14   ar
    34    14    15    1
    35     6     1    1
    36    14     8   ar
    37    33    27    1
    38    20    16   ar
    39     3     7    1
