@<TRIPOS>MOLECULE
*****
 35 39 0 0 0
SMALL
GASTEIGER

@<TRIPOS>ATOM
      1 N         140.1150  143.6346  160.8328 N.am    1  UNL1       -0.2874
      2 C         141.3602  143.6413  159.9966 C.2     1  UNL1        0.3040
      3 O         142.1640  144.9002  159.8581 O.2     1  UNL1       -0.2526
      4 N         141.8017  142.3891  159.2988 N.am    1  UNL1       -0.2642
      5 C         143.0469  142.3957  158.4625 C.3     1  UNL1        0.0954
      6 C         143.4884  141.1435  157.7647 C.3     1  UNL1        0.0309
      7 C         142.6846  139.8846  157.9032 C.3     1  UNL1        0.0827
      8 C         141.4394  139.8779  158.7394 C.3     1  UNL1        0.0309
      9 C         140.9979  141.1302  159.4372 C.3     1  UNL1        0.0954
     10 H         139.5875  142.8084  160.9237 H       1  UNL1        0.1510
     11 C         143.1261  138.6323  157.2054 C.ar    1  UNL1        0.2362
     12 N         142.6088  137.2486  157.4660 N.ar    1  UNL1       -0.1895
     13 C         143.3254  136.3050  156.5461 C.ar    1  UNL1        0.2210
     14 N         144.2855  137.1055  155.7169 N.ar    1  UNL1       -0.0544
     15 O         144.1623  138.5438  156.1244 O.2     1  UNL1       -0.3370
     16 C         143.1182  134.8213  156.4689 C.ar    1  UNL1        0.1202
     17 C         141.9883  134.2632  155.6555 C.ar    1  UNL1        0.0224
     18 C         141.7811  132.7796  155.5783 C.ar    1  UNL1        0.0031
     19 C         142.7038  131.8541  156.3145 C.ar    1  UNL1        0.0177
     20 C         142.4966  130.3705  156.2373 C.ar    1  UNL1        0.0015
     21 C         143.4193  129.4451  156.9736 C.ar    1  UNL1        0.0001
     22 C         144.5493  130.0032  157.7870 C.ar    1  UNL1        0.0015
     23 C         144.7565  131.4868  157.8642 C.ar    1  UNL1        0.0191
     24 C         143.8338  132.4122  157.1279 C.ar    1  UNL1        0.0814
     25 N         144.0410  133.8959  157.2051 N.ar    1  UNL1       -0.2422
     26 C         139.6735  144.8870  161.5307 C.3     1  UNL1        0.1052
     27 C         139.6367  144.9372  163.0294 C.3     1  UNL1        0.0602
     28 C         139.8749  145.1351  164.4971 C.3     1  UNL1        0.0161
     29 C         138.7146  144.5408  165.2392 C.3     1  UNL1        0.0014
     30 C         137.7594  143.9757  164.2301 C.3     1  UNL1        0.0014
     31 C         138.3293  144.2206  162.8644 C.3     1  UNL1        0.0161
     32 N         140.9518  145.6433  162.8810 N.3     1  UNL1       -0.2982
     33 H         141.2614  145.4906  161.9212 H       1  UNL1        0.1232
     34 C         143.4289  144.9149  163.1702 C.3     1  UNL1        0.0185
     35 C         142.1033  145.2787  163.7705 C.3     1  UNL1        0.0686
@<TRIPOS>BOND
     1    34    35    1
     2    35    32    1
     3    32    27    1
     4    27    26    1
     5    26     1    1
     6     1     2   am
     7     2     3    2
     8     2     4   am
     9     4     5    1
    10     5     6    1
    11     6     7    1
    12     7    11    1
    13    11    12   ar
    14    12    13   ar
    15    13    16    1
    16    16    17   ar
    17    17    18   ar
    18    18    19   ar
    19    19    20   ar
    20    20    21   ar
    21    21    22   ar
    22    22    23   ar
    23    23    24   ar
    24    24    25   ar
    25    13    14   ar
    26    14    15   ar
    27     7     8    1
    28     8     9    1
    29    27    28    1
    30    28    29    1
    31    29    30    1
    32    30    31    1
    33    31    27    1
    34     9     4    1
    35    15    11   ar
    36    25    16   ar
    37    24    19   ar
    38    32    33    1
    39     1    10    1
@<TRIPOS>MOLECULE
*****
 35 39 0 0 0
SMALL
GASTEIGER

@<TRIPOS>ATOM
      1 N         139.8763  146.9960  156.3642 N.am    1  UNL1       -0.2874
      2 C         140.9856  145.9913  156.4640 C.2     1  UNL1        0.3040
      3 O         141.7927  145.6419  155.2489 O.2     1  UNL1       -0.2526
      4 N         141.2878  145.3360  157.7790 N.am    1  UNL1       -0.2642
      5 C         142.3971  144.3312  157.8788 C.3     1  UNL1        0.0954
      6 C         142.6992  143.6759  159.1938 C.3     1  UNL1        0.0309
      7 C         141.8922  144.0253  160.4089 C.3     1  UNL1        0.0827
      8 C         140.7829  145.0300  160.3091 C.3     1  UNL1        0.0309
      9 C         140.4807  145.6854  158.9941 C.3     1  UNL1        0.0954
     10 H         139.3466  147.2253  157.1617 H       1  UNL1        0.1510
     11 C         142.1943  143.3699  161.7239 C.ar    1  UNL1        0.2362
     12 N         141.1866  142.9570  162.7555 N.ar    1  UNL1       -0.1895
     13 C         141.9268  142.3443  163.9073 C.ar    1  UNL1        0.2210
     14 N         143.3920  142.3786  163.5877 N.ar    1  UNL1       -0.0544
     15 O         143.5573  143.0124  162.2383 O.2     1  UNL1       -0.3370
     16 C         141.3101  141.7940  165.1591 C.ar    1  UNL1        0.1202
     17 C         140.7914  140.3867  165.1835 C.ar    1  UNL1        0.0224
     18 C         140.1747  139.8364  166.4352 C.ar    1  UNL1        0.0031
     19 C         140.0766  140.6933  167.6625 C.ar    1  UNL1        0.0177
     20 C         139.4598  140.1429  168.9141 C.ar    1  UNL1        0.0015
     21 C         139.3618  140.9999  170.1413 C.ar    1  UNL1        0.0001
     22 C         139.8804  142.4071  170.1169 C.ar    1  UNL1        0.0015
     23 C         140.4972  142.9575  168.8652 C.ar    1  UNL1        0.0191
     24 C         140.5952  142.1005  167.6380 C.ar    1  UNL1        0.0814
     25 N         141.2120  142.6509  166.3863 N.ar    1  UNL1       -0.2422
     26 C         139.5741  147.6514  155.0491 C.3     1  UNL1        0.1052
     27 C         139.2530  149.1157  154.9972 C.3     1  UNL1        0.0602
     28 C         138.7822  150.5232  155.2148 C.3     1  UNL1        0.0161
     29 C         139.2745  151.3588  154.0706 C.3     1  UNL1        0.0014
     30 C         140.0495  150.4678  153.1457 C.3     1  UNL1        0.0014
     31 C         140.0363  149.0815  153.7184 C.3     1  UNL1        0.0161
     32 N         138.5369  148.8439  156.2869 N.3     1  UNL1       -0.2982
     33 H         137.6784  148.3475  156.0480 H       1  UNL1        0.1232
     34 C         137.9545  149.7505  158.6510 C.3     1  UNL1        0.0185
     35 C         138.1442  149.9823  157.1812 C.3     1  UNL1        0.0686
@<TRIPOS>BOND
     1    34    35    1
     2    35    32    1
     3    32    27    1
     4    27    26    1
     5    26     1    1
     6     1     2   am
     7     2     3    2
     8     2     4   am
     9     4     5    1
    10     5     6    1
    11     6     7    1
    12     7    11    1
    13    11    12   ar
    14    12    13   ar
    15    13    16    1
    16    16    17   ar
    17    17    18   ar
    18    18    19   ar
    19    19    20   ar
    20    20    21   ar
    21    21    22   ar
    22    22    23   ar
    23    23    24   ar
    24    24    25   ar
    25    13    14   ar
    26    14    15   ar
    27     7     8    1
    28     8     9    1
    29    27    28    1
    30    28    29    1
    31    29    30    1
    32    30    31    1
    33    31    27    1
    34     9     4    1
    35    15    11   ar
    36    25    16   ar
    37    24    19   ar
    38    32    33    1
    39     1    10    1
@<TRIPOS>MOLECULE
*****
 35 39 0 0 0
SMALL
GASTEIGER

@<TRIPOS>ATOM
      1 N         140.2889  140.5655  164.1709 N.am    1  UNL1       -0.2874
      2 C         141.6802  140.6370  163.6148 C.2     1  UNL1        0.3040
      3 O         142.7537  141.3625  164.3707 O.2     1  UNL1       -0.2526
      4 N         141.9981  139.9829  162.3029 N.am    1  UNL1       -0.2642
      5 C         143.3893  140.0543  161.7469 C.3     1  UNL1        0.0954
      6 C         143.7072  139.4002  160.4350 C.3     1  UNL1        0.0309
      7 C         142.6337  138.6747  159.6791 C.3     1  UNL1        0.0827
      8 C         141.2424  138.6033  160.2351 C.3     1  UNL1        0.0309
      9 C         140.9246  139.2574  161.5470 C.3     1  UNL1        0.0954
     10 H         139.5844  140.0894  163.6748 H       1  UNL1        0.1510
     11 C         142.9515  138.0207  158.3672 C.ar    1  UNL1        0.2362
     12 N         142.7856  136.5651  158.0445 N.ar    1  UNL1       -0.1895
     13 C         143.2226  136.3522  156.6255 C.ar    1  UNL1        0.2210
     14 N         143.6586  137.6760  156.0711 N.ar    1  UNL1       -0.0544
     15 O         143.4910  138.7072  157.1475 O.2     1  UNL1       -0.3370
     16 C         143.2235  135.0449  155.8900 C.ar    1  UNL1        0.1202
     17 C         142.4135  134.8886  154.6372 C.ar    1  UNL1        0.0224
     18 C         142.4143  133.5813  153.9017 C.ar    1  UNL1        0.0031
     19 C         143.2252  132.4302  154.4190 C.ar    1  UNL1        0.0177
     20 C         143.2260  131.1229  153.6835 C.ar    1  UNL1        0.0015
     21 C         144.0368  129.9719  154.2008 C.ar    1  UNL1        0.0001
     22 C         144.8468  130.1282  155.4536 C.ar    1  UNL1        0.0015
     23 C         144.8460  131.4354  156.1891 C.ar    1  UNL1        0.0191
     24 C         144.0352  132.5865  155.6718 C.ar    1  UNL1        0.0814
     25 N         144.0343  133.8938  156.4073 N.ar    1  UNL1       -0.2422
     26 C         139.9711  141.2196  165.4829 C.3     1  UNL1        0.1052
     27 C         139.6182  142.6768  165.5284 C.3     1  UNL1        0.0602
     28 C         139.5297  144.1591  165.7405 C.3     1  UNL1        0.0161
     29 C         138.2837  144.6504  165.0651 C.3     1  UNL1        0.0014
     30 C         137.6021  143.4718  164.4356 C.3     1  UNL1        0.0014
     31 C         138.4268  142.2520  164.7219 C.3     1  UNL1        0.0161
     32 N         140.8832  142.7969  166.3253 N.3     1  UNL1       -0.2982
     33 H         141.6312  142.4088  165.7506 H       1  UNL1        0.1232
     34 C         140.5101  142.8655  168.8956 C.3     1  UNL1        0.0185
     35 C         140.9870  142.1424  167.6710 C.3     1  UNL1        0.0686
@<TRIPOS>BOND
     1    34    35    1
     2    35    32    1
     3    32    27    1
     4    27    26    1
     5    26     1    1
     6     1     2   am
     7     2     3    2
     8     2     4   am
     9     4     5    1
    10     5     6    1
    11     6     7    1
    12     7    11    1
    13    11    12   ar
    14    12    13   ar
    15    13    16    1
    16    16    17   ar
    17    17    18   ar
    18    18    19   ar
    19    19    20   ar
    20    20    21   ar
    21    21    22   ar
    22    22    23   ar
    23    23    24   ar
    24    24    25   ar
    25    13    14   ar
    26    14    15   ar
    27     7     8    1
    28     8     9    1
    29    27    28    1
    30    28    29    1
    31    29    30    1
    32    30    31    1
    33    31    27    1
    34     9     4    1
    35    15    11   ar
    36    25    16   ar
    37    24    19   ar
    38    32    33    1
    39     1    10    1
@<TRIPOS>MOLECULE
*****
 35 39 0 0 0
SMALL
GASTEIGER

@<TRIPOS>ATOM
      1 N         142.7432  140.4801  166.2733 N.am    1  UNL1       -0.2874
      2 C         143.4450  141.1760  165.1449 C.2     1  UNL1        0.3040
      3 O         144.1891  142.4535  165.3985 O.2     1  UNL1       -0.2526
      4 N         143.4026  140.5944  163.7629 N.am    1  UNL1       -0.2642
      5 C         144.1044  141.2903  162.6345 C.3     1  UNL1        0.0954
      6 C         144.0620  140.7087  161.2526 C.3     1  UNL1        0.0309
      7 C         143.3179  139.4312  160.9990 C.3     1  UNL1        0.0827
      8 C         142.6161  138.7353  162.1273 C.3     1  UNL1        0.0309
      9 C         142.6585  139.3169  163.5093 C.3     1  UNL1        0.0954
     10 H         142.2549  139.6416  166.1068 H       1  UNL1        0.1510
     11 C         143.2755  138.8496  159.6170 C.ar    1  UNL1        0.2362
     12 N         142.7327  137.5019  159.2437 N.ar    1  UNL1       -0.1895
     13 C         142.8903  137.3330  157.7616 C.ar    1  UNL1        0.2210
     14 N         143.5304  138.5762  157.2188 N.ar    1  UNL1       -0.0544
     15 O         143.7685  139.5135  158.3654 O.2     1  UNL1       -0.3370
     16 C         142.4797  136.1317  156.9626 C.ar    1  UNL1        0.1202
     17 C         141.5011  136.2794  155.8354 C.ar    1  UNL1        0.0224
     18 C         141.0906  135.0781  155.0364 C.ar    1  UNL1        0.0031
     19 C         141.6586  133.7291  155.3646 C.ar    1  UNL1        0.0177
     20 C         141.2480  132.5279  154.5656 C.ar    1  UNL1        0.0015
     21 C         141.8161  131.1790  154.8938 C.ar    1  UNL1        0.0001
     22 C         142.7946  131.0313  156.0210 C.ar    1  UNL1        0.0015
     23 C         143.2052  132.2326  156.8200 C.ar    1  UNL1        0.0191
     24 C         142.6372  133.5815  156.4918 C.ar    1  UNL1        0.0814
     25 N         143.0477  134.7828  157.2908 N.ar    1  UNL1       -0.2422
     26 C         142.7856  141.0617  167.6554 C.3     1  UNL1        0.1052
     27 C         141.5090  141.4074  168.3630 C.3     1  UNL1        0.0602
     28 C         140.1165  141.5093  168.9113 C.3     1  UNL1        0.0161
     29 C         140.0773  142.6665  169.8648 C.3     1  UNL1        0.0014
     30 C         141.4455  143.2798  169.9059 C.3     1  UNL1        0.0014
     31 C         142.3304  142.5017  168.9778 C.3     1  UNL1        0.0161
     32 N         140.9545  140.2409  167.6004 N.3     1  UNL1       -0.2982
     33 H         141.4634  140.1976  166.7174 H       1  UNL1        0.1232
     34 C         138.9734  139.1307  166.3384 C.3     1  UNL1        0.0185
     35 C         139.4941  140.1923  167.2613 C.3     1  UNL1        0.0686
@<TRIPOS>BOND
     1    34    35    1
     2    35    32    1
     3    32    27    1
     4    27    26    1
     5    26     1    1
     6     1     2   am
     7     2     3    2
     8     2     4   am
     9     4     5    1
    10     5     6    1
    11     6     7    1
    12     7    11    1
    13    11    12   ar
    14    12    13   ar
    15    13    16    1
    16    16    17   ar
    17    17    18   ar
    18    18    19   ar
    19    19    20   ar
    20    20    21   ar
    21    21    22   ar
    22    22    23   ar
    23    23    24   ar
    24    24    25   ar
    25    13    14   ar
    26    14    15   ar
    27     7     8    1
    28     8     9    1
    29    27    28    1
    30    28    29    1
    31    29    30    1
    32    30    31    1
    33    31    27    1
    34     9     4    1
    35    15    11   ar
    36    25    16   ar
    37    24    19   ar
    38    32    33    1
    39     1    10    1
@<TRIPOS>MOLECULE
*****
 35 39 0 0 0
SMALL
GASTEIGER

@<TRIPOS>ATOM
      1 N         144.1660  141.6230  160.7588 N.am    1  UNL1       -0.2874
      2 C         144.2642  141.5046  159.2667 C.2     1  UNL1        0.3040
      3 O         144.8680  142.6187  158.4640 O.2     1  UNL1       -0.2526
      4 N         143.7585  140.2722  158.5773 N.am    1  UNL1       -0.2642
      5 C         143.8567  140.1538  157.0852 C.3     1  UNL1        0.0954
      6 C         143.3510  138.9213  156.3958 C.3     1  UNL1        0.0309
      7 C         142.7472  137.8072  157.1985 C.3     1  UNL1        0.0827
      8 C         142.6490  137.9256  158.6906 C.3     1  UNL1        0.0309
      9 C         143.1547  139.1581  159.3800 C.3     1  UNL1        0.0954
     10 H         143.7697  140.8918  161.2856 H       1  UNL1        0.1510
     11 C         142.2415  136.5748  156.5091 C.ar    1  UNL1        0.2362
     12 N         142.6654  135.1654  156.7992 N.ar    1  UNL1       -0.1895
     13 C         141.9090  134.2549  155.8779 C.ar    1  UNL1        0.2210
     14 N         141.0176  135.1015  155.0184 N.ar    1  UNL1       -0.0544
     15 O         141.2231  136.5352  155.4084 O.2     1  UNL1       -0.3370
     16 C         142.0239  132.7602  155.8254 C.ar    1  UNL1        0.1202
     17 C         141.3548  131.9949  154.7224 C.ar    1  UNL1        0.0224
     18 C         141.4696  130.5002  154.6698 C.ar    1  UNL1        0.0031
     19 C         142.2535  129.7708  155.7204 C.ar    1  UNL1        0.0177
     20 C         142.3684  128.2762  155.6678 C.ar    1  UNL1        0.0015
     21 C         143.1522  127.5469  156.7183 C.ar    1  UNL1        0.0001
     22 C         143.8213  128.3122  157.8213 C.ar    1  UNL1        0.0015
     23 C         143.7065  129.8068  157.8739 C.ar    1  UNL1        0.0191
     24 C         142.9226  130.5361  156.8234 C.ar    1  UNL1        0.0814
     25 N         142.8077  132.0309  156.8759 N.ar    1  UNL1       -0.2422
     26 C         144.6717  142.8555  161.4483 C.3     1  UNL1        0.1052
     27 C         144.7368  142.9037  162.9461 C.3     1  UNL1        0.0602
     28 C         144.9437  142.6739  164.4139 C.3     1  UNL1        0.0161
     29 C         144.3795  143.8519  165.1515 C.3     1  UNL1        0.0014
     30 C         143.8240  144.8098  164.1396 C.3     1  UNL1        0.0014
     31 C         144.0448  144.2238  162.7766 C.3     1  UNL1        0.0161
     32 N         145.4151  141.5736  162.8025 N.3     1  UNL1       -0.2982
     33 H         145.0656  141.1565  161.9398 H       1  UNL1        0.1232
     34 C         144.4934  139.2806  163.6038 C.3     1  UNL1        0.0185
     35 C         145.2672  140.5364  163.8759 C.3     1  UNL1        0.0686
@<TRIPOS>BOND
     1    34    35    1
     2    35    32    1
     3    32    27    1
     4    27    26    1
     5    26     1    1
     6     1     2   am
     7     2     3    2
     8     2     4   am
     9     4     5    1
    10     5     6    1
    11     6     7    1
    12     7    11    1
    13    11    12   ar
    14    12    13   ar
    15    13    16    1
    16    16    17   ar
    17    17    18   ar
    18    18    19   ar
    19    19    20   ar
    20    20    21   ar
    21    21    22   ar
    22    22    23   ar
    23    23    24   ar
    24    24    25   ar
    25    13    14   ar
    26    14    15   ar
    27     7     8    1
    28     8     9    1
    29    27    28    1
    30    28    29    1
    31    29    30    1
    32    30    31    1
    33    31    27    1
    34     9     4    1
    35    15    11   ar
    36    25    16   ar
    37    24    19   ar
    38    32    33    1
    39     1    10    1
@<TRIPOS>MOLECULE
*****
 35 39 0 0 0
SMALL
GASTEIGER

@<TRIPOS>ATOM
      1 N         141.4393  141.7862  165.6103 N.am    1  UNL1       -0.2874
      2 C         142.7047  141.8731  164.8096 C.2     1  UNL1        0.3040
      3 O         143.8731  142.6528  165.3357 O.2     1  UNL1       -0.2526
      4 N         142.8016  141.1802  163.4827 N.am    1  UNL1       -0.2642
      5 C         144.0670  141.2671  162.6820 C.3     1  UNL1        0.0954
      6 C         144.1640  140.5743  161.3551 C.3     1  UNL1        0.0309
      7 C         142.9955  139.7946  160.8290 C.3     1  UNL1        0.0827
      8 C         141.7301  139.7077  161.6297 C.3     1  UNL1        0.0309
      9 C         141.6332  140.4005  162.9566 C.3     1  UNL1        0.0954
     10 H         140.6724  141.2744  165.2649 H       1  UNL1        0.1510
     11 C         143.0925  139.1018  159.5021 C.ar    1  UNL1        0.2362
     12 N         142.5264  137.7534  159.1680 N.ar    1  UNL1       -0.1895
     13 C         142.8567  137.4540  157.7358 C.ar    1  UNL1        0.2210
     14 N         143.6267  138.6173  157.1847 N.ar    1  UNL1       -0.0544
     15 O         143.7725  139.6357  158.2763 O.2     1  UNL1       -0.3370
     16 C         142.4824  136.2097  156.9863 C.ar    1  UNL1        0.1202
     17 C         141.5133  136.2852  155.8439 C.ar    1  UNL1        0.0224
     18 C         141.1390  135.0410  155.0944 C.ar    1  UNL1        0.0031
     19 C         141.7340  133.7212  155.4872 C.ar    1  UNL1        0.0177
     20 C         141.3597  132.4769  154.7377 C.ar    1  UNL1        0.0015
     21 C         141.9546  131.1572  155.1306 C.ar    1  UNL1        0.0001
     22 C         142.9238  131.0818  156.2730 C.ar    1  UNL1        0.0015
     23 C         143.2980  132.3260  157.0225 C.ar    1  UNL1        0.0191
     24 C         142.7031  133.6457  156.6296 C.ar    1  UNL1        0.0814
     25 N         143.0774  134.8900  157.3791 N.ar    1  UNL1       -0.2422
     26 C         141.3423  142.4790  166.9372 C.3     1  UNL1        0.1052
     27 C         140.8348  141.7347  168.1366 C.3     1  UNL1        0.0602
     28 C         140.5165  141.1835  169.4948 C.3     1  UNL1        0.0161
     29 C         139.5208  140.0749  169.3235 C.3     1  UNL1        0.0014
     30 C         139.2236  139.9409  167.8593 C.3     1  UNL1        0.0014
     31 C         140.0357  140.9668  167.1257 C.3     1  UNL1        0.0161
     32 N         141.7400  142.6583  168.8966 N.3     1  UNL1       -0.2982
     33 H         142.3658  143.0852  168.2137 H       1  UNL1        0.1232
     34 C         144.0824  142.3729  169.9836 C.3     1  UNL1        0.0185
     35 C         142.6036  142.1222  169.9997 C.3     1  UNL1        0.0686
@<TRIPOS>BOND
     1    34    35    1
     2    35    32    1
     3    32    27    1
     4    27    26    1
     5    26     1    1
     6     1     2   am
     7     2     3    2
     8     2     4   am
     9     4     5    1
    10     5     6    1
    11     6     7    1
    12     7    11    1
    13    11    12   ar
    14    12    13   ar
    15    13    16    1
    16    16    17   ar
    17    17    18   ar
    18    18    19   ar
    19    19    20   ar
    20    20    21   ar
    21    21    22   ar
    22    22    23   ar
    23    23    24   ar
    24    24    25   ar
    25    13    14   ar
    26    14    15   ar
    27     7     8    1
    28     8     9    1
    29    27    28    1
    30    28    29    1
    31    29    30    1
    32    30    31    1
    33    31    27    1
    34     9     4    1
    35    15    11   ar
    36    25    16   ar
    37    24    19   ar
    38    32    33    1
    39     1    10    1
@<TRIPOS>MOLECULE
*****
 35 39 0 0 0
SMALL
GASTEIGER

@<TRIPOS>ATOM
      1 N         141.6914  142.7851  162.8115 N.am    1  UNL1       -0.2874
      2 C         142.3229  143.0294  161.4730 C.2     1  UNL1        0.3040
      3 O         142.7203  144.4196  161.0737 O.2     1  UNL1       -0.2526
      4 N         142.5569  141.8835  160.5339 N.am    1  UNL1       -0.2642
      5 C         143.1884  142.1277  159.1954 C.3     1  UNL1        0.0954
      6 C         143.4224  140.9818  158.2562 C.3     1  UNL1        0.0309
      7 C         143.0249  139.5916  158.6555 C.3     1  UNL1        0.0827
      8 C         142.3935  139.3473  159.9940 C.3     1  UNL1        0.0309
      9 C         142.1594  140.4933  160.9332 C.3     1  UNL1        0.0954
     10 H         141.4306  141.8727  163.0736 H       1  UNL1        0.1510
     11 C         143.2589  138.4457  157.7163 C.ar    1  UNL1        0.2362
     12 N         142.8612  137.0184  157.9505 N.ar    1  UNL1       -0.1895
     13 C         143.2883  136.2165  156.7569 C.ar    1  UNL1        0.2210
     14 N         143.9499  137.1481  155.7851 N.ar    1  UNL1       -0.0544
     15 O         143.9317  138.5258  156.3780 O.2     1  UNL1       -0.3370
     16 C         143.0887  134.7418  156.5684 C.ar    1  UNL1        0.1202
     17 C         141.9888  134.2414  155.6796 C.ar    1  UNL1        0.0224
     18 C         141.7892  132.7668  155.4910 C.ar    1  UNL1        0.0031
     19 C         142.6896  131.7924  156.1912 C.ar    1  UNL1        0.0177
     20 C         142.4900  130.3178  156.0026 C.ar    1  UNL1        0.0015
     21 C         143.3902  129.3436  156.7028 C.ar    1  UNL1        0.0001
     22 C         144.4901  129.8440  157.5915 C.ar    1  UNL1        0.0015
     23 C         144.6897  131.3186  157.7801 C.ar    1  UNL1        0.0191
     24 C         143.7894  132.2928  157.0799 C.ar    1  UNL1        0.0814
     25 N         143.9890  133.7675  157.2685 N.ar    1  UNL1       -0.2422
     26 C         141.4574  143.9311  163.7508 C.3     1  UNL1        0.1052
     27 C         140.7322  143.7046  165.0442 C.3     1  UNL1        0.0602
     28 C         139.7974  143.6777  166.2169 C.3     1  UNL1        0.0161
     29 C         140.3741  142.7539  167.2483 C.3     1  UNL1        0.0014
     30 C         141.6654  142.2097  166.7130 C.3     1  UNL1        0.0014
     31 C         141.8867  142.7973  165.3507 C.3     1  UNL1        0.0161
     32 N         139.7293  144.6593  164.4672 N.3     1  UNL1       -0.2982
     33 H         139.7933  145.5188  165.0126 H       1  UNL1        0.1232
     34 C         137.6362  143.9350  163.1091 C.3     1  UNL1        0.0185
     35 C         138.2778  144.2839  164.4193 C.3     1  UNL1        0.0686
@<TRIPOS>BOND
     1    34    35    1
     2    35    32    1
     3    32    27    1
     4    27    26    1
     5    26     1    1
     6     1     2   am
     7     2     3    2
     8     2     4   am
     9     4     5    1
    10     5     6    1
    11     6     7    1
    12     7    11    1
    13    11    12   ar
    14    12    13   ar
    15    13    16    1
    16    16    17   ar
    17    17    18   ar
    18    18    19   ar
    19    19    20   ar
    20    20    21   ar
    21    21    22   ar
    22    22    23   ar
    23    23    24   ar
    24    24    25   ar
    25    13    14   ar
    26    14    15   ar
    27     7     8    1
    28     8     9    1
    29    27    28    1
    30    28    29    1
    31    29    30    1
    32    30    31    1
    33    31    27    1
    34     9     4    1
    35    15    11   ar
    36    25    16   ar
    37    24    19   ar
    38    32    33    1
    39     1    10    1
@<TRIPOS>MOLECULE
*****
 35 39 0 0 0
SMALL
GASTEIGER

@<TRIPOS>ATOM
      1 N         142.5291  139.1546  161.3438 N.am    1  UNL1       -0.2874
      2 C         142.6324  139.4996  159.8877 C.2     1  UNL1        0.3040
      3 O         143.9776  139.5752  159.2284 O.2     1  UNL1       -0.2526
      4 N         141.3904  139.7689  159.0908 N.am    1  UNL1       -0.2642
      5 C         141.4937  140.1138  157.6347 C.3     1  UNL1        0.0954
      6 C         140.2517  140.3831  156.8379 C.3     1  UNL1        0.0309
      7 C         138.9065  140.3075  157.4972 C.3     1  UNL1        0.0827
      8 C         138.8032  139.9625  158.9533 C.3     1  UNL1        0.0309
      9 C         140.0452  139.6932  159.7501 C.3     1  UNL1        0.0954
     10 H         141.6462  139.1049  161.7765 H       1  UNL1        0.1510
     11 C         137.6645  140.5768  156.7003 C.ar    1  UNL1        0.2362
     12 N         136.2548  140.3556  157.1630 N.ar    1  UNL1       -0.1895
     13 C         135.3333  140.7567  156.0495 C.ar    1  UNL1        0.2210
     14 N         136.1733  141.2258  154.8987 N.ar    1  UNL1       -0.0544
     15 O         137.6141  141.1146  155.3009 O.2     1  UNL1       -0.3370
     16 C         133.8347  140.6989  156.0813 C.ar    1  UNL1        0.1202
     17 C         133.0301  141.6148  155.2074 C.ar    1  UNL1        0.0224
     18 C         131.5316  141.5570  155.2391 C.ar    1  UNL1        0.0031
     19 C         130.8375  140.5832  156.1448 C.ar    1  UNL1        0.0177
     20 C         129.3390  140.5254  156.1765 C.ar    1  UNL1        0.0015
     21 C         128.6451  139.5516  157.0821 C.ar    1  UNL1        0.0001
     22 C         129.4497  138.6357  157.9560 C.ar    1  UNL1        0.0015
     23 C         130.9482  138.6935  157.9242 C.ar    1  UNL1        0.0191
     24 C         131.6421  139.6672  157.0186 C.ar    1  UNL1        0.0814
     25 N         133.1407  139.7251  156.9869 N.ar    1  UNL1       -0.2422
     26 C         143.7711  138.8853  162.1407 C.3     1  UNL1        0.1052
     27 C         143.7141  138.8800  163.6396 C.3     1  UNL1        0.0602
     28 C         143.9303  139.0270  165.1167 C.3     1  UNL1        0.0161
     29 C         142.7686  138.3909  165.8207 C.3     1  UNL1        0.0014
     30 C         141.8343  137.8508  164.7788 C.3     1  UNL1        0.0014
     31 C         142.4187  138.1531  163.4308 C.3     1  UNL1        0.0161
     32 N         145.0214  139.6081  163.5350 N.3     1  UNL1       -0.2982
     33 H         145.4345  139.6067  164.4676 H       1  UNL1        0.1232
     34 C         145.6420  142.1024  163.9133 C.3     1  UNL1        0.0185
     35 C         145.0529  141.0269  163.0494 C.3     1  UNL1        0.0686
@<TRIPOS>BOND
     1    34    35    1
     2    35    32    1
     3    32    27    1
     4    27    26    1
     5    26     1    1
     6     1     2   am
     7     2     3    2
     8     2     4   am
     9     4     5    1
    10     5     6    1
    11     6     7    1
    12     7    11    1
    13    11    12   ar
    14    12    13   ar
    15    13    16    1
    16    16    17   ar
    17    17    18   ar
    18    18    19   ar
    19    19    20   ar
    20    20    21   ar
    21    21    22   ar
    22    22    23   ar
    23    23    24   ar
    24    24    25   ar
    25    13    14   ar
    26    14    15   ar
    27     7     8    1
    28     8     9    1
    29    27    28    1
    30    28    29    1
    31    29    30    1
    32    30    31    1
    33    31    27    1
    34     9     4    1
    35    15    11   ar
    36    25    16   ar
    37    24    19   ar
    38    32    33    1
    39     1    10    1
@<TRIPOS>MOLECULE
*****
 35 39 0 0 0
SMALL
GASTEIGER

@<TRIPOS>ATOM
      1 N         140.1818  141.2002  164.5218 N.am    1  UNL1       -0.2874
      2 C         140.4677  142.6300  164.1697 C.2     1  UNL1        0.3040
      3 O         140.8718  143.5997  165.2404 O.2     1  UNL1       -0.2526
      4 N         140.3493  143.0901  162.7469 N.am    1  UNL1       -0.2642
      5 C         140.6352  144.5199  162.3949 C.3     1  UNL1        0.0954
      6 C         140.5168  144.9800  160.9721 C.3     1  UNL1        0.0309
      7 C         140.1126  144.0104  159.9014 C.3     1  UNL1        0.0827
      8 C         139.8268  142.5806  160.2535 C.3     1  UNL1        0.0309
      9 C         139.9451  142.1204  161.6763 C.3     1  UNL1        0.0954
     10 H         139.9166  140.5638  163.8190 H       1  UNL1        0.1510
     11 C         139.9943  144.4705  158.4787 C.ar    1  UNL1        0.2362
     12 N         139.9950  145.8954  158.0098 N.ar    1  UNL1       -0.1895
     13 C         139.8556  145.8919  156.5163 C.ar    1  UNL1        0.2210
     14 N         139.7687  144.4650  156.0621 N.ar    1  UNL1       -0.0544
     15 O         139.8544  143.5865  157.2748 O.2     1  UNL1       -0.3370
     16 C         139.8109  147.1030  155.6322 C.ar    1  UNL1        0.1202
     17 C         140.4297  147.0578  154.2666 C.ar    1  UNL1        0.0224
     18 C         140.3851  148.2687  153.3825 C.ar    1  UNL1        0.0031
     19 C         139.7216  149.5249  153.8641 C.ar    1  UNL1        0.0177
     20 C         139.6770  150.7359  152.9801 C.ar    1  UNL1        0.0015
     21 C         139.0135  151.9920  153.4617 C.ar    1  UNL1        0.0001
     22 C         138.3947  152.0371  154.8274 C.ar    1  UNL1        0.0015
     23 C         138.4394  150.8262  155.7114 C.ar    1  UNL1        0.0191
     24 C         139.1028  149.5701  155.2298 C.ar    1  UNL1        0.0814
     25 N         139.1475  148.3591  156.1139 N.ar    1  UNL1       -0.2422
     26 C         140.3002  140.7401  165.9446 C.3     1  UNL1        0.1052
     27 C         141.5791  140.1246  166.4299 C.3     1  UNL1        0.0602
     28 C         142.8533  139.7434  167.1235 C.3     1  UNL1        0.0161
     29 C         143.3960  138.5156  166.4542 C.3     1  UNL1        0.0014
     30 C         142.4571  138.1379  165.3470 C.3     1  UNL1        0.0014
     31 C         141.3342  139.1323  165.3319 C.3     1  UNL1        0.0161
     32 N         141.5566  141.2455  167.4263 N.3     1  UNL1       -0.2982
     33 H         142.2514  141.0206  168.1384 H       1  UNL1        0.1232
     34 C         140.3423  142.1919  169.5192 C.3     1  UNL1        0.0185
     35 C         140.2864  141.5794  168.1511 C.3     1  UNL1        0.0686
@<TRIPOS>BOND
     1    34    35    1
     2    35    32    1
     3    32    27    1
     4    27    26    1
     5    26     1    1
     6     1     2   am
     7     2     3    2
     8     2     4   am
     9     4     5    1
    10     5     6    1
    11     6     7    1
    12     7    11    1
    13    11    12   ar
    14    12    13   ar
    15    13    16    1
    16    16    17   ar
    17    17    18   ar
    18    18    19   ar
    19    19    20   ar
    20    20    21   ar
    21    21    22   ar
    22    22    23   ar
    23    23    24   ar
    24    24    25   ar
    25    13    14   ar
    26    14    15   ar
    27     7     8    1
    28     8     9    1
    29    27    28    1
    30    28    29    1
    31    29    30    1
    32    30    31    1
    33    31    27    1
    34     9     4    1
    35    15    11   ar
    36    25    16   ar
    37    24    19   ar
    38    32    33    1
    39     1    10    1
