@<TRIPOS>MOLECULE
*****
 27 29 0 0 0
SMALL
GASTEIGER

@<TRIPOS>ATOM
      1 C         140.6849  141.5981  166.9402 C.ar    1  UNL1        0.0186
      2 C         140.8189  142.8571  167.7445 C.ar    1  UNL1        0.0105
      3 C         140.3207  142.9002  169.1588 C.ar    1  UNL1        0.0576
      4 CL        140.4546  144.1592  169.9631 Cl      1  UNL1       -0.0823
      5 C         139.6885  141.6843  169.7686 C.ar    1  UNL1        0.0145
      6 C         139.5545  140.4253  168.9642 C.ar    1  UNL1        0.0375
      7 C         140.0527  140.3822  167.5501 C.ar    1  UNL1        0.1354
      8 C         141.1831  141.5550  165.5260 C.3     1  UNL1        0.0751
      9 CA        140.2671  144.6541  163.2224 C.ar    1  UNL1        0.0948
     10 C         141.5867  145.3648  163.1655 C.ar    1  UNL1        0.0203
     11 C         142.7719  144.8057  163.8954 C.ar    1  UNL1        0.0028
     12 C         142.6373  143.5357  164.6823 C.ar    1  UNL1        0.0151
     13 C         141.3177  142.8250  164.7392 C.ar    1  UNL1        0.0635
     14 N         140.1326  143.3841  164.0092 N.ar    1  UNL1       -0.2482
     15 O         139.2617  146.3493  161.5297 O.co2   1  UNL1       -0.5430
     16 C         139.0819  145.2132  162.4925 C.2     1  UNL1        0.0905
     17 OXT       137.7171  144.6363  162.7254 O.co2   1  UNL1       -0.5430
     18 O         139.9187  139.1232  166.7457 O.3     1  UNL1       -0.4709
     19 C         138.6218  138.8036  166.0632 C.3     1  UNL1        0.2342
     20 C         138.4792  139.0182  164.5855 C.ar    1  UNL1        0.0487
     21 C         138.7554  137.8920  163.6340 C.ar    1  UNL1        0.0024
     22 C         138.6128  138.1065  162.1563 C.ar    1  UNL1        0.0113
     23 C         138.1939  139.4473  161.6301 C.ar    1  UNL1        0.0599
     24 CL        138.0513  139.6618  160.1524 Cl      1  UNL1       -0.0822
     25 C         137.9177  140.5735  162.5816 C.ar    1  UNL1        0.0408
     26 C         138.0604  140.3589  164.0593 C.ar    1  UNL1        0.1404
     27 F         137.7841  141.4852  165.0108 F       1  UNL1       -0.2044
@<TRIPOS>UNITY_ATOM_ATTR
17 1
charge -1
@<TRIPOS>BOND
     1    15    16   ar
     2    16    17   ar
     3    16     9    1
     4     9    10   ar
     5    10    11   ar
     6    11    12   ar
     7    12    13   ar
     8    13     8    1
     9     8     1    1
    10     1     2   ar
    11     2     3   ar
    12     3     4    1
    13     3     5   ar
    14     5     6   ar
    15     6     7   ar
    16     7    18    1
    17    18    19    1
    18    19    20    1
    19    20    21   ar
    20    21    22   ar
    21    22    23   ar
    22    23    24    1
    23    23    25   ar
    24    25    26   ar
    25    26    27    1
    26    13    14   ar
    27    14     9   ar
    28     7     1   ar
    29    26    20   ar
@<TRIPOS>MOLECULE
*****
 27 29 0 0 0
SMALL
GASTEIGER

@<TRIPOS>ATOM
      1 C         142.6359  142.7716  165.2126 C.ar    1  UNL1        0.0186
      2 C         141.2749  143.3537  164.9703 C.ar    1  UNL1        0.0105
      3 C         141.0994  144.4615  163.9742 C.ar    1  UNL1        0.0576
      4 CL        139.7384  145.0436  163.7320 Cl      1  UNL1       -0.0823
      5 C         142.2850  144.9870  163.2204 C.ar    1  UNL1        0.0145
      6 C         143.6460  144.4049  163.4627 C.ar    1  UNL1        0.0375
      7 C         143.8215  143.2972  164.4587 C.ar    1  UNL1        0.1354
      8 C         142.8114  141.6639  166.2086 C.3     1  UNL1        0.0751
      9 CA        140.4494  141.9491  169.3851 C.ar    1  UNL1        0.0948
     10 C         139.5488  140.7680  169.1756 C.ar    1  UNL1        0.0203
     11 C         139.7357  139.8855  167.9772 C.ar    1  UNL1        0.0028
     12 C         140.8232  140.1841  166.9882 C.ar    1  UNL1        0.0151
     13 C         141.7238  141.3652  167.1976 C.ar    1  UNL1        0.0635
     14 N         141.5369  142.2477  168.3961 N.ar    1  UNL1       -0.2482
     15 O         139.9640  144.2903  170.4015 O.co2   1  UNL1       -0.5430
     16 C         140.2625  142.8316  170.5835 C.2     1  UNL1        0.0905
     17 OXT       140.3741  142.2555  171.9639 O.co2   1  UNL1       -0.5430
     18 O         145.1825  142.7150  164.7010 O.3     1  UNL1       -0.4709
     19 C         145.7625  141.7330  163.7267 C.3     1  UNL1        0.2342
     20 C         144.8606  140.7948  162.9809 C.ar    1  UNL1        0.0487
     21 C         144.3679  141.1580  161.6115 C.ar    1  UNL1        0.0024
     22 C         143.4660  140.2197  160.8656 C.ar    1  UNL1        0.0113
     23 C         143.0569  138.9183  161.4891 C.ar    1  UNL1        0.0599
     24 CL        142.1550  137.9801  160.7432 Cl      1  UNL1       -0.0822
     25 C         143.5496  138.5551  162.8585 C.ar    1  UNL1        0.0408
     26 C         144.4515  139.4933  163.6044 C.ar    1  UNL1        0.1404
     27 F         144.9442  139.1301  164.9738 F       1  UNL1       -0.2044
@<TRIPOS>UNITY_ATOM_ATTR
17 1
charge -1
@<TRIPOS>BOND
     1    15    16   ar
     2    16    17   ar
     3    16     9    1
     4     9    10   ar
     5    10    11   ar
     6    11    12   ar
     7    12    13   ar
     8    13     8    1
     9     8     1    1
    10     1     2   ar
    11     2     3   ar
    12     3     4    1
    13     3     5   ar
    14     5     6   ar
    15     6     7   ar
    16     7    18    1
    17    18    19    1
    18    19    20    1
    19    20    21   ar
    20    21    22   ar
    21    22    23   ar
    22    23    24    1
    23    23    25   ar
    24    25    26   ar
    25    26    27    1
    26    13    14   ar
    27    14     9   ar
    28     7     1   ar
    29    26    20   ar
@<TRIPOS>MOLECULE
*****
 27 29 0 0 0
SMALL
GASTEIGER

@<TRIPOS>ATOM
      1 C         138.8284  140.6202  165.1318 C.ar    1  UNL1        0.0186
      2 C         138.5965  142.0981  165.0222 C.ar    1  UNL1        0.0105
      3 C         137.9876  142.6715  163.7769 C.ar    1  UNL1        0.0576
      4 CL        137.7557  144.1494  163.6673 Cl      1  UNL1       -0.0823
      5 C         137.6107  141.7669  162.6413 C.ar    1  UNL1        0.0145
      6 C         137.8426  140.2890  162.7509 C.ar    1  UNL1        0.0375
      7 C         138.4514  139.7156  163.9961 C.ar    1  UNL1        0.1354
      8 C         139.4372  140.0469  166.3770 C.3     1  UNL1        0.0751
      9 CA        140.8114  142.2655  169.3669 C.ar    1  UNL1        0.0948
     10 C         142.2036  142.5541  168.8892 C.ar    1  UNL1        0.0203
     11 C         142.6738  142.0070  167.5740 C.ar    1  UNL1        0.0028
     12 C         141.7517  141.1713  166.7366 C.ar    1  UNL1        0.0151
     13 C         140.3594  140.8827  167.2144 C.ar    1  UNL1        0.0635
     14 N         139.8893  141.4298  168.5296 N.ar    1  UNL1       -0.2482
     15 O         140.6306  142.0670  171.9511 O.co2   1  UNL1       -0.5430
     16 C         140.3413  142.8126  170.6821 C.2     1  UNL1        0.0905
     17 OXT       139.5818  144.1052  170.7283 O.co2   1  UNL1       -0.5430
     18 O         138.6833  138.2377  164.1057 O.3     1  UNL1       -0.4709
     19 C         139.9004  137.6213  163.4824 C.3     1  UNL1        0.2342
     20 C         141.2460  138.2544  163.6788 C.ar    1  UNL1        0.0487
     21 C         142.0521  137.9382  164.9036 C.ar    1  UNL1        0.0024
     22 C         143.3977  138.5712  165.1000 C.ar    1  UNL1        0.0113
     23 C         143.9372  139.5205  164.0715 C.ar    1  UNL1        0.0599
     24 CL        145.2828  140.1536  164.2679 Cl      1  UNL1       -0.0822
     25 C         143.1311  139.8367  162.8467 C.ar    1  UNL1        0.0408
     26 C         141.7855  139.2037  162.6503 C.ar    1  UNL1        0.1404
     27 F         140.9794  139.5199  161.4254 F       1  UNL1       -0.2044
@<TRIPOS>UNITY_ATOM_ATTR
17 1
charge -1
@<TRIPOS>BOND
     1    15    16   ar
     2    16    17   ar
     3    16     9    1
     4     9    10   ar
     5    10    11   ar
     6    11    12   ar
     7    12    13   ar
     8    13     8    1
     9     8     1    1
    10     1     2   ar
    11     2     3   ar
    12     3     4    1
    13     3     5   ar
    14     5     6   ar
    15     6     7   ar
    16     7    18    1
    17    18    19    1
    18    19    20    1
    19    20    21   ar
    20    21    22   ar
    21    22    23   ar
    22    23    24    1
    23    23    25   ar
    24    25    26   ar
    25    26    27    1
    26    13    14   ar
    27    14     9   ar
    28     7     1   ar
    29    26    20   ar
@<TRIPOS>MOLECULE
*****
 27 29 0 0 0
SMALL
GASTEIGER

@<TRIPOS>ATOM
      1 C         143.2661  139.2231  165.0207 C.ar    1  UNL1        0.0186
      2 C         144.2805  140.3182  164.8727 C.ar    1  UNL1        0.0105
      3 C         144.8670  140.6203  163.5255 C.ar    1  UNL1        0.0576
      4 CL        145.8813  141.7154  163.3775 Cl      1  UNL1       -0.0823
      5 C         144.4392  139.8272  162.3264 C.ar    1  UNL1        0.0145
      6 C         143.4248  138.7321  162.4743 C.ar    1  UNL1        0.0375
      7 C         142.8383  138.4300  163.8214 C.ar    1  UNL1        0.1354
      8 C         142.6796  138.9211  166.3678 C.3     1  UNL1        0.0751
      9 CA        140.6747  140.7908  169.2373 C.ar    1  UNL1        0.0948
     10 C         140.2799  142.0536  168.5307 C.ar    1  UNL1        0.0203
     11 C         140.6849  142.2723  167.1031 C.ar    1  UNL1        0.0028
     12 C         141.4849  141.2282  166.3821 C.ar    1  UNL1        0.0151
     13 C         141.8797  139.9653  167.0887 C.ar    1  UNL1        0.0635
     14 N         141.4746  139.7467  168.5164 N.ar    1  UNL1       -0.2482
     15 O         140.7938  141.4770  171.7403 O.co2   1  UNL1       -0.5430
     16 C         140.2696  140.5721  170.6650 C.2     1  UNL1        0.0905
     17 OXT       139.3403  139.4486  171.0172 O.co2   1  UNL1       -0.5430
     18 O         141.8240  137.3349  163.9694 O.3     1  UNL1       -0.4709
     19 C         140.4182  137.5451  163.4905 C.3     1  UNL1        0.2342
     20 C         139.7181  138.8429  163.7658 C.ar    1  UNL1        0.0487
     21 C         139.9196  140.0128  162.8490 C.ar    1  UNL1        0.0024
     22 C         139.2196  141.3106  163.1243 C.ar    1  UNL1        0.0113
     23 C         138.3181  141.4384  164.3163 C.ar    1  UNL1        0.0599
     24 CL        137.6181  142.7362  164.5916 Cl      1  UNL1       -0.0822
     25 C         138.1167  140.2684  165.2331 C.ar    1  UNL1        0.0408
     26 C         138.8167  138.9706  164.9578 C.ar    1  UNL1        0.1404
     27 F         138.6152  137.8006  165.8747 F       1  UNL1       -0.2044
@<TRIPOS>UNITY_ATOM_ATTR
17 1
charge -1
@<TRIPOS>BOND
     1    15    16   ar
     2    16    17   ar
     3    16     9    1
     4     9    10   ar
     5    10    11   ar
     6    11    12   ar
     7    12    13   ar
     8    13     8    1
     9     8     1    1
    10     1     2   ar
    11     2     3   ar
    12     3     4    1
    13     3     5   ar
    14     5     6   ar
    15     6     7   ar
    16     7    18    1
    17    18    19    1
    18    19    20    1
    19    20    21   ar
    20    21    22   ar
    21    22    23   ar
    22    23    24    1
    23    23    25   ar
    24    25    26   ar
    25    26    27    1
    26    13    14   ar
    27    14     9   ar
    28     7     1   ar
    29    26    20   ar
@<TRIPOS>MOLECULE
*****
 27 29 0 0 0
SMALL
GASTEIGER

@<TRIPOS>ATOM
      1 C         138.5258  140.2767  164.6774 C.ar    1  UNL1        0.0186
      2 C         138.4294  141.7083  165.1145 C.ar    1  UNL1        0.0105
      3 C         137.9609  142.7572  164.1498 C.ar    1  UNL1        0.0576
      4 CL        137.8645  144.1888  164.5870 Cl      1  UNL1       -0.0823
      5 C         137.5890  142.3744  162.7480 C.ar    1  UNL1        0.0145
      6 C         137.6854  140.9427  162.3109 C.ar    1  UNL1        0.0375
      7 C         138.1538  139.8939  163.2755 C.ar    1  UNL1        0.1354
      8 C         138.9942  139.2279  165.6420 C.3     1  UNL1        0.0751
      9 CA        140.4435  140.0464  169.2447 C.ar    1  UNL1        0.0948
     10 C         141.8830  140.3126  168.9174 C.ar    1  UNL1        0.0203
     11 C         142.3595  140.2172  167.4983 C.ar    1  UNL1        0.0028
     12 C         141.3966  139.8556  166.4065 C.ar    1  UNL1        0.0151
     13 C         139.9572  139.5895  166.7338 C.ar    1  UNL1        0.0635
     14 N         139.4806  139.6848  168.1529 N.ar    1  UNL1       -0.2482
     15 O         140.6854  141.0273  171.6383 O.co2   1  UNL1       -0.5430
     16 C         139.9670  140.1418  170.6638 C.2     1  UNL1        0.0905
     17 OXT       138.7720  139.3516  171.1084 O.co2   1  UNL1       -0.5430
     18 O         138.2502  138.4623  162.8383 O.3     1  UNL1       -0.4709
     19 C         139.4436  137.9948  162.0590 C.3     1  UNL1        0.2342
     20 C         140.7989  138.5698  162.3459 C.ar    1  UNL1        0.0487
     21 C         141.2411  139.8273  161.6581 C.ar    1  UNL1        0.0024
     22 C         142.5965  140.4023  161.9451 C.ar    1  UNL1        0.0113
     23 C         143.5097  139.7198  162.9198 C.ar    1  UNL1        0.0599
     24 CL        144.8651  140.2948  163.2067 Cl      1  UNL1       -0.0822
     25 C         143.0675  138.4623  163.6076 C.ar    1  UNL1        0.0408
     26 C         141.7122  137.8873  163.3206 C.ar    1  UNL1        0.1404
     27 F         141.2700  136.6297  164.0085 F       1  UNL1       -0.2044
@<TRIPOS>UNITY_ATOM_ATTR
17 1
charge -1
@<TRIPOS>BOND
     1    15    16   ar
     2    16    17   ar
     3    16     9    1
     4     9    10   ar
     5    10    11   ar
     6    11    12   ar
     7    12    13   ar
     8    13     8    1
     9     8     1    1
    10     1     2   ar
    11     2     3   ar
    12     3     4    1
    13     3     5   ar
    14     5     6   ar
    15     6     7   ar
    16     7    18    1
    17    18    19    1
    18    19    20    1
    19    20    21   ar
    20    21    22   ar
    21    22    23   ar
    22    23    24    1
    23    23    25   ar
    24    25    26   ar
    25    26    27    1
    26    13    14   ar
    27    14     9   ar
    28     7     1   ar
    29    26    20   ar
@<TRIPOS>MOLECULE
*****
 27 29 0 0 0
SMALL
GASTEIGER

@<TRIPOS>ATOM
      1 C         139.1036  139.9528  164.7959 C.ar    1  UNL1        0.0186
      2 C         140.0931  138.8534  165.0456 C.ar    1  UNL1        0.0105
      3 C         140.2337  137.7325  164.0588 C.ar    1  UNL1        0.0576
      4 CL        141.2232  136.6332  164.3085 Cl      1  UNL1       -0.0823
      5 C         139.3848  137.7109  162.8223 C.ar    1  UNL1        0.0145
      6 C         138.3953  138.8102  162.5726 C.ar    1  UNL1        0.0375
      7 C         138.2547  139.9311  163.5594 C.ar    1  UNL1        0.1354
      8 C         138.9630  141.0737  165.7827 C.3     1  UNL1        0.0751
      9 CA        140.8755  141.0728  169.2601 C.ar    1  UNL1        0.0948
     10 C         142.1546  141.7581  168.8803 C.ar    1  UNL1        0.0203
     11 C         142.3698  142.2153  167.4680 C.ar    1  UNL1        0.0028
     12 C         141.3060  141.9871  166.4354 C.ar    1  UNL1        0.0151
     13 C         140.0269  141.3018  166.8152 C.ar    1  UNL1        0.0635
     14 N         139.8117  140.8447  168.2276 N.ar    1  UNL1       -0.2482
     15 O         139.5567  139.6501  170.9882 O.co2   1  UNL1       -0.5430
     16 C         140.6602  140.6157  170.6724 C.2     1  UNL1        0.0905
     17 OXT       141.5485  141.1241  171.7689 O.co2   1  UNL1       -0.5430
     18 O         137.2652  141.0304  163.3097 O.3     1  UNL1       -0.4709
     19 C         137.6572  142.2188  162.4826 C.3     1  UNL1        0.2342
     20 C         138.8797  143.0110  162.8402 C.ar    1  UNL1        0.0487
     21 C         140.1729  142.7592  162.1231 C.ar    1  UNL1        0.0024
     22 C         141.3954  143.5514  162.4807 C.ar    1  UNL1        0.0113
     23 C         141.3247  144.5955  163.5553 C.ar    1  UNL1        0.0599
     24 CL        142.5472  145.3877  163.9129 Cl      1  UNL1       -0.0822
     25 C         140.0315  144.8474  164.2724 C.ar    1  UNL1        0.0408
     26 C         138.8090  144.0551  163.9148 C.ar    1  UNL1        0.1404
     27 F         137.5158  144.3070  164.6319 F       1  UNL1       -0.2044
@<TRIPOS>UNITY_ATOM_ATTR
17 1
charge -1
@<TRIPOS>BOND
     1    15    16   ar
     2    16    17   ar
     3    16     9    1
     4     9    10   ar
     5    10    11   ar
     6    11    12   ar
     7    12    13   ar
     8    13     8    1
     9     8     1    1
    10     1     2   ar
    11     2     3   ar
    12     3     4    1
    13     3     5   ar
    14     5     6   ar
    15     6     7   ar
    16     7    18    1
    17    18    19    1
    18    19    20    1
    19    20    21   ar
    20    21    22   ar
    21    22    23   ar
    22    23    24    1
    23    23    25   ar
    24    25    26   ar
    25    26    27    1
    26    13    14   ar
    27    14     9   ar
    28     7     1   ar
    29    26    20   ar
@<TRIPOS>MOLECULE
*****
 27 29 0 0 0
SMALL
GASTEIGER

@<TRIPOS>ATOM
      1 C         140.7660  141.8481  167.3857 C.ar    1  UNL1        0.0186
      2 C         140.6010  142.7321  168.5863 C.ar    1  UNL1        0.0105
      3 C         139.8552  142.2331  169.7883 C.ar    1  UNL1        0.0576
      4 CL        139.6903  143.1170  170.9889 Cl      1  UNL1       -0.0823
      5 C         139.2744  140.8501  169.7898 C.ar    1  UNL1        0.0145
      6 C         139.4393  139.9661  168.5892 C.ar    1  UNL1        0.0375
      7 C         140.1851  140.4651  167.3872 C.ar    1  UNL1        0.1354
      8 C         141.5117  142.3471  166.1837 C.3     1  UNL1        0.0751
      9 CA        140.7975  144.4490  162.8941 C.ar    1  UNL1        0.0948
     10 C         139.4604  145.0441  163.2226 C.ar    1  UNL1        0.0203
     11 C         138.8070  144.7402  164.5382 C.ar    1  UNL1        0.0028
     12 C         139.4908  143.8412  165.5253 C.ar    1  UNL1        0.0151
     13 C         140.8279  143.2461  165.1967 C.ar    1  UNL1        0.0635
     14 N         141.4812  143.5500  163.8811 N.ar    1  UNL1       -0.2482
     15 O         140.6699  145.4314  160.4923 O.co2   1  UNL1       -0.5430
     16 C         141.4508  144.7528  161.5784 C.2     1  UNL1        0.0905
     17 OXT       142.8850  144.3782  161.3490 O.co2   1  UNL1       -0.5430
     18 O         140.3500  139.5811  166.1866 O.3     1  UNL1       -0.4709
     19 C         139.1882  139.3367  165.2699 C.3     1  UNL1        0.2342
     20 C         139.0246  140.1640  164.0295 C.ar    1  UNL1        0.0487
     21 C         137.7906  140.9955  163.8399 C.ar    1  UNL1        0.0024
     22 C         137.6270  141.8228  162.5994 C.ar    1  UNL1        0.0113
     23 C         138.6973  141.8187  161.5485 C.ar    1  UNL1        0.0599
     24 CL        138.5337  142.6460  160.3081 Cl      1  UNL1       -0.0822
     25 C         139.9313  140.9872  161.7381 C.ar    1  UNL1        0.0408
     26 C         140.0949  140.1599  162.9786 C.ar    1  UNL1        0.1404
     27 F         141.3289  139.3284  163.1682 F       1  UNL1       -0.2044
@<TRIPOS>UNITY_ATOM_ATTR
17 1
charge -1
@<TRIPOS>BOND
     1    15    16   ar
     2    16    17   ar
     3    16     9    1
     4     9    10   ar
     5    10    11   ar
     6    11    12   ar
     7    12    13   ar
     8    13     8    1
     9     8     1    1
    10     1     2   ar
    11     2     3   ar
    12     3     4    1
    13     3     5   ar
    14     5     6   ar
    15     6     7   ar
    16     7    18    1
    17    18    19    1
    18    19    20    1
    19    20    21   ar
    20    21    22   ar
    21    22    23   ar
    22    23    24    1
    23    23    25   ar
    24    25    26   ar
    25    26    27    1
    26    13    14   ar
    27    14     9   ar
    28     7     1   ar
    29    26    20   ar
@<TRIPOS>MOLECULE
*****
 27 29 0 0 0
SMALL
GASTEIGER

@<TRIPOS>ATOM
      1 C         142.9449  141.0841  166.3561 C.ar    1  UNL1        0.0186
      2 C         142.9861  142.1390  167.4217 C.ar    1  UNL1        0.0105
      3 C         142.8463  141.7534  168.8646 C.ar    1  UNL1        0.0576
      4 CL        142.8875  142.8082  169.9302 Cl      1  UNL1       -0.0823
      5 C         142.6652  140.3129  169.2418 C.ar    1  UNL1        0.0145
      6 C         142.6240  139.2581  168.1761 C.ar    1  UNL1        0.0375
      7 C         142.7638  139.6436  166.7333 C.ar    1  UNL1        0.1354
      8 C         143.0847  141.4696  164.9133 C.3     1  UNL1        0.0751
      9 CA        140.7229  144.4950  163.9036 C.ar    1  UNL1        0.0948
     10 C         141.7378  145.5343  163.5297 C.ar    1  UNL1        0.0203
     11 C         143.2016  145.2188  163.6171 C.ar    1  UNL1        0.0028
     12 C         143.6506  143.8639  164.0782 C.ar    1  UNL1        0.0151
     13 C         142.6358  142.8246  164.4521 C.ar    1  UNL1        0.0635
     14 N         141.1719  143.1401  164.3647 N.ar    1  UNL1       -0.2482
     15 O         138.4209  144.8317  165.0600 O.co2   1  UNL1       -0.5430
     16 C         139.2591  144.8105  163.8163 C.2     1  UNL1        0.0905
     17 OXT       138.6334  145.1049  162.4852 O.co2   1  UNL1       -0.5430
     18 O         142.7226  138.5887  165.6677 O.3     1  UNL1       -0.4709
     19 C         141.4035  138.0792  165.1674 C.3     1  UNL1        0.2342
     20 C         140.3653  139.0431  164.6744 C.ar    1  UNL1        0.0487
     21 C         140.3238  139.4237  163.2241 C.ar    1  UNL1        0.0024
     22 C         139.2856  140.3877  162.7311 C.ar    1  UNL1        0.0113
     23 C         138.2890  140.9710  163.6884 C.ar    1  UNL1        0.0599
     24 CL        137.2508  141.9349  163.1953 Cl      1  UNL1       -0.0822
     25 C         138.3305  140.5904  165.1386 C.ar    1  UNL1        0.0408
     26 C         139.3687  139.6265  165.6317 C.ar    1  UNL1        0.1404
     27 F         139.4102  139.2459  167.0820 F       1  UNL1       -0.2044
@<TRIPOS>UNITY_ATOM_ATTR
17 1
charge -1
@<TRIPOS>BOND
     1    15    16   ar
     2    16    17   ar
     3    16     9    1
     4     9    10   ar
     5    10    11   ar
     6    11    12   ar
     7    12    13   ar
     8    13     8    1
     9     8     1    1
    10     1     2   ar
    11     2     3   ar
    12     3     4    1
    13     3     5   ar
    14     5     6   ar
    15     6     7   ar
    16     7    18    1
    17    18    19    1
    18    19    20    1
    19    20    21   ar
    20    21    22   ar
    21    22    23   ar
    22    23    24    1
    23    23    25   ar
    24    25    26   ar
    25    26    27    1
    26    13    14   ar
    27    14     9   ar
    28     7     1   ar
    29    26    20   ar
@<TRIPOS>MOLECULE
*****
 27 29 0 0 0
SMALL
GASTEIGER

@<TRIPOS>ATOM
      1 C         138.1046  140.1450  162.7258 C.ar    1  UNL1        0.0186
      2 C         138.4707  139.8469  161.3021 C.ar    1  UNL1        0.0105
      3 C         139.2503  138.6087  160.9717 C.ar    1  UNL1        0.0576
      4 CL        139.6164  138.3105  159.5479 Cl      1  UNL1       -0.0823
      5 C         139.6639  137.6687  162.0650 C.ar    1  UNL1        0.0145
      6 C         139.2978  137.9669  163.4888 C.ar    1  UNL1        0.0375
      7 C         138.5182  139.2050  163.8192 C.ar    1  UNL1        0.1354
      8 C         137.3250  141.3832  163.0562 C.3     1  UNL1        0.0751
      9 CA        139.8543  144.4408  162.9986 C.ar    1  UNL1        0.0948
     10 C         139.4803  145.1421  164.2706 C.ar    1  UNL1        0.0203
     11 C         138.3878  144.5904  165.1379 C.ar    1  UNL1        0.0028
     12 C         137.6694  143.3375  164.7332 C.ar    1  UNL1        0.0151
     13 C         138.0434  142.6362  163.4611 C.ar    1  UNL1        0.0635
     14 N         139.1359  143.1878  162.5938 N.ar    1  UNL1       -0.2482
     15 O         140.6033  145.7400  160.8770 O.co2   1  UNL1       -0.5430
     16 C         140.9468  144.9925  162.1313 C.2     1  UNL1        0.0905
     17 OXT       142.3827  144.7966  162.5182 O.co2   1  UNL1       -0.5430
     18 O         138.1521  139.5032  165.2429 O.3     1  UNL1       -0.4709
     19 C         139.1332  139.2267  166.3433 C.3     1  UNL1        0.2342
     20 C         139.5908  140.3406  167.2376 C.ar    1  UNL1        0.0487
     21 C         139.3627  140.2559  168.7177 C.ar    1  UNL1        0.0024
     22 C         139.8203  141.3699  169.6120 C.ar    1  UNL1        0.0113
     23 C         140.5059  142.5685  169.0263 C.ar    1  UNL1        0.0599
     24 CL        140.9635  143.6824  169.9206 Cl      1  UNL1       -0.0822
     25 C         140.7340  142.6531  167.5462 C.ar    1  UNL1        0.0408
     26 C         140.2764  141.5392  166.6518 C.ar    1  UNL1        0.1404
     27 F         140.5046  141.6239  165.1717 F       1  UNL1       -0.2044
@<TRIPOS>UNITY_ATOM_ATTR
17 1
charge -1
@<TRIPOS>BOND
     1    15    16   ar
     2    16    17   ar
     3    16     9    1
     4     9    10   ar
     5    10    11   ar
     6    11    12   ar
     7    12    13   ar
     8    13     8    1
     9     8     1    1
    10     1     2   ar
    11     2     3   ar
    12     3     4    1
    13     3     5   ar
    14     5     6   ar
    15     6     7   ar
    16     7    18    1
    17    18    19    1
    18    19    20    1
    19    20    21   ar
    20    21    22   ar
    21    22    23   ar
    22    23    24    1
    23    23    25   ar
    24    25    26   ar
    25    26    27    1
    26    13    14   ar
    27    14     9   ar
    28     7     1   ar
    29    26    20   ar
