@<TRIPOS>MOLECULE
*****
 28 30 0 0 0
SMALL
GASTEIGER

@<TRIPOS>ATOM
      1 C         139.2685  138.9909  166.0481 C.ar    1  UNL1       -0.0036
      2 C         139.4132  138.1409  164.8207 C.ar    1  UNL1        0.0162
      3 C         140.6774  138.1959  164.0151 C.ar    1  UNL1        0.0844
      4 N         140.8221  137.3460  162.7876 N.ar    1  UNL1       -0.2436
      5 C         142.0862  137.4010  161.9821 C.ar    1  UNL1        0.1023
      6 C         143.2056  138.3059  162.4040 C.ar    1  UNL1        0.0608
      7 C         143.0609  139.1559  163.6314 C.ar    1  UNL1        0.1384
      8 C         141.7968  139.1008  164.4370 C.ar    1  UNL1        0.0558
      9 C         141.6521  139.9508  165.6645 C.ar    1  UNL1        0.0229
     10 C         140.3879  139.8958  166.4700 C.ar    1  UNL1        0.1018
     11 S         140.2432  140.7458  167.6975 S.O2    1  UNL1        0.0051
     12 O         140.6897  139.5937  168.5480 O.2     1  UNL1       -0.1687
     13 O         139.7967  141.8978  166.8471 O.2     1  UNL1       -0.1687
     14 C         140.0984  141.5957  168.9249 C.3     1  UNL1        0.1150
     15 C         139.6287  140.3992  169.6981 C.3     1  UNL1        0.0240
     16 C         140.5682  142.7922  168.1518 C.3     1  UNL1        0.0240
     17 C         139.9537  142.4456  170.1523 C.3     1  UNL1        0.0240
     18 C         137.3279  137.6198  167.0989 C.3     1  UNL1        0.0051
     19 C         138.0044  138.9359  166.8537 C.3     1  UNL1        0.0277
     20 N         144.1803  140.0608  164.0533 N.pl3   1  UNL1       -0.2004
     21 H         144.9007  139.7169  164.6296 H       1  UNL1        0.2982
     22 C         144.2022  141.4896  163.5972 C.2     1  UNL1        0.3331
     23 N         144.5064  141.9671  162.2082 N.2     1  UNL1        0.0753
     24 N         144.4159  143.4645  162.2026 N.2     1  UNL1       -0.0428
     25 C         144.0558  143.9123  163.5882 C.2     1  UNL1        0.0948
     26 C         143.8619  145.3313  164.0336 C.3     1  UNL1        0.0519
     27 C         143.9237  142.6918  164.4501 C.3     1  UNL1        0.1480
     28 C         143.5745  142.6760  165.9088 C.3     1  UNL1        0.0190
@<TRIPOS>BOND
     1    18    19    1
     2    19     1    1
     3     1     2   ar
     4     2     3   ar
     5     3     4   ar
     6     4     5   ar
     7     5     6   ar
     8     6     7   ar
     9     7    20    1
    10    20    22    1
    11    22    23    2
    12    23    24    1
    13    24    25    2
    14    25    26    1
    15    25    27    1
    16    27    28    1
    17     7     8   ar
    18     8     9   ar
    19     9    10   ar
    20    10    11    1
    21    11    12    2
    22    11    13    2
    23    11    14    1
    24    14    15    1
    25    14    16    1
    26    14    17    1
    27    10     1   ar
    28     8     3   ar
    29    27    22    1
    30    20    21    1
@<TRIPOS>MOLECULE
*****
 28 30 0 0 0
SMALL
GASTEIGER

@<TRIPOS>ATOM
      1 C         138.5870  139.9799  166.0159 C.ar    1  UNL1       -0.0036
      2 C         137.7916  140.4441  164.8319 C.ar    1  UNL1        0.0162
      3 C         138.2628  141.6178  164.0253 C.ar    1  UNL1        0.0844
      4 N         137.4674  142.0820  162.8413 N.ar    1  UNL1       -0.2436
      5 C         137.9386  143.2556  162.0349 C.ar    1  UNL1        0.1023
      6 C         139.2051  143.9652  162.4124 C.ar    1  UNL1        0.0608
      7 C         140.0004  143.5010  163.5964 C.ar    1  UNL1        0.1384
      8 C         139.5293  142.3273  164.4029 C.ar    1  UNL1        0.0558
      9 C         140.3246  141.8631  165.5870 C.ar    1  UNL1        0.0229
     10 C         139.8535  140.6894  166.3934 C.ar    1  UNL1        0.1018
     11 S         140.6488  140.2252  167.5775 S.O2    1  UNL1        0.0051
     12 O         141.4515  139.3252  166.6856 O.2     1  UNL1       -0.1687
     13 O         139.8461  141.1252  168.4695 O.2     1  UNL1       -0.1687
     14 C         141.4441  139.7611  168.7616 C.3     1  UNL1        0.1150
     15 C         140.2759  140.0463  169.6581 C.3     1  UNL1        0.0240
     16 C         142.6124  139.4759  167.8651 C.3     1  UNL1        0.0240
     17 C         142.2394  139.2969  169.9456 C.3     1  UNL1        0.0240
     18 C         138.1213  137.4321  166.2209 C.3     1  UNL1        0.0051
     19 C         138.1158  138.8062  166.8224 C.3     1  UNL1        0.0277
     20 N         141.2669  144.2105  163.9740 N.pl3   1  UNL1       -0.2004
     21 H         141.2356  144.9822  164.5846 H       1  UNL1        0.2982
     22 C         142.5811  143.7444  163.4212 C.2     1  UNL1        0.3331
     23 N         143.1382  144.0804  162.0696 N.2     1  UNL1        0.0753
     24 N         144.4704  143.4040  161.9361 N.2     1  UNL1       -0.0428
     25 C         144.7367  142.6500  163.2052 C.2     1  UNL1        0.0948
     26 C         145.9564  141.8297  163.5040 C.3     1  UNL1        0.0519
     27 C         143.5691  142.8604  164.1231 C.3     1  UNL1        0.1480
     28 C         143.4162  142.2874  165.5008 C.3     1  UNL1        0.0190
@<TRIPOS>BOND
     1    18    19    1
     2    19     1    1
     3     1     2   ar
     4     2     3   ar
     5     3     4   ar
     6     4     5   ar
     7     5     6   ar
     8     6     7   ar
     9     7    20    1
    10    20    22    1
    11    22    23    2
    12    23    24    1
    13    24    25    2
    14    25    26    1
    15    25    27    1
    16    27    28    1
    17     7     8   ar
    18     8     9   ar
    19     9    10   ar
    20    10    11    1
    21    11    12    2
    22    11    13    2
    23    11    14    1
    24    14    15    1
    25    14    16    1
    26    14    17    1
    27    10     1   ar
    28     8     3   ar
    29    27    22    1
    30    20    21    1
@<TRIPOS>MOLECULE
*****
 28 30 0 0 0
SMALL
GASTEIGER

@<TRIPOS>ATOM
      1 C         141.7547  139.2184  166.1824 C.ar    1  UNL1       -0.0036
      2 C         141.4092  138.3350  165.0205 C.ar    1  UNL1        0.0162
      3 C         140.2291  138.6623  164.1543 C.ar    1  UNL1        0.0844
      4 N         139.8836  137.7789  162.9923 N.ar    1  UNL1       -0.2436
      5 C         138.7035  138.1062  162.1262 C.ar    1  UNL1        0.1023
      6 C         137.8689  139.3169  162.4220 C.ar    1  UNL1        0.0608
      7 C         138.2144  140.2004  163.5840 C.ar    1  UNL1        0.1384
      8 C         139.3945  139.8731  164.4501 C.ar    1  UNL1        0.0558
      9 C         139.7400  140.7565  165.6121 C.ar    1  UNL1        0.0229
     10 C         140.9201  140.4292  166.4782 C.ar    1  UNL1        0.1018
     11 S         141.2656  141.3126  167.6402 S.O2    1  UNL1        0.0051
     12 O         142.1806  142.1119  166.7606 O.2     1  UNL1       -0.1687
     13 O         140.3507  140.5133  168.5199 O.2     1  UNL1       -0.1687
     14 C         141.6111  142.1960  168.8022 C.3     1  UNL1        0.1150
     15 C         143.0185  142.3111  168.2963 C.3     1  UNL1        0.0240
     16 C         140.2037  142.0809  169.3082 C.3     1  UNL1        0.0240
     17 C         141.9566  143.0794  169.9642 C.3     1  UNL1        0.0240
     18 C         144.0168  137.9895  166.5326 C.3     1  UNL1        0.0051
     19 C         142.9349  138.8911  167.0486 C.3     1  UNL1        0.0277
     20 N         137.3798  141.4111  163.8798 N.pl3   1  UNL1       -0.2004
     21 H         136.4376  141.3065  164.1457 H       1  UNL1        0.2982
     22 C         137.9806  142.7812  163.7705 C.2     1  UNL1        0.3331
     23 N         138.1811  143.7486  164.8992 N.2     1  UNL1        0.0753
     24 N         138.8108  144.9898  164.3395 N.2     1  UNL1       -0.0428
     25 C         138.9994  144.7893  162.8649 C.2     1  UNL1        0.0948
     26 C         139.5963  145.7799  161.9098 C.3     1  UNL1        0.0519
     27 C         138.4863  143.4244  162.5133 C.3     1  UNL1        0.1480
     28 C         138.4800  142.8104  161.1447 C.3     1  UNL1        0.0190
@<TRIPOS>BOND
     1    18    19    1
     2    19     1    1
     3     1     2   ar
     4     2     3   ar
     5     3     4   ar
     6     4     5   ar
     7     5     6   ar
     8     6     7   ar
     9     7    20    1
    10    20    22    1
    11    22    23    2
    12    23    24    1
    13    24    25    2
    14    25    26    1
    15    25    27    1
    16    27    28    1
    17     7     8   ar
    18     8     9   ar
    19     9    10   ar
    20    10    11    1
    21    11    12    2
    22    11    13    2
    23    11    14    1
    24    14    15    1
    25    14    16    1
    26    14    17    1
    27    10     1   ar
    28     8     3   ar
    29    27    22    1
    30    20    21    1
@<TRIPOS>MOLECULE
*****
 28 30 0 0 0
SMALL
GASTEIGER

@<TRIPOS>ATOM
      1 C         142.8190  142.1599  167.3790 C.ar    1  UNL1       -0.0036
      2 C         143.7412  142.7903  166.3780 C.ar    1  UNL1        0.0162
      3 C         143.1833  143.4142  165.1331 C.ar    1  UNL1        0.0844
      4 N         144.1055  144.0446  164.1320 N.ar    1  UNL1       -0.2436
      5 C         143.5476  144.6685  162.8873 C.ar    1  UNL1        0.1023
      6 C         142.0676  144.6620  162.6436 C.ar    1  UNL1        0.0608
      7 C         141.1454  144.0316  163.6446 C.ar    1  UNL1        0.1384
      8 C         141.7033  143.4078  164.8894 C.ar    1  UNL1        0.0558
      9 C         140.7811  142.7773  165.8905 C.ar    1  UNL1        0.0229
     10 C         141.3389  142.1534  167.1353 C.ar    1  UNL1        0.1018
     11 S         140.4167  141.5230  168.1364 S.O2    1  UNL1        0.0051
     12 O         140.5396  140.2096  167.4226 O.2     1  UNL1       -0.1687
     13 O         140.2939  142.8365  168.8503 O.2     1  UNL1       -0.1687
     14 C         139.4946  140.8927  169.1375 C.3     1  UNL1        0.1150
     15 C         139.8275  141.9725  170.1240 C.3     1  UNL1        0.0240
     16 C         139.1617  139.8129  168.1510 C.3     1  UNL1        0.0240
     17 C         138.5724  140.2623  170.1386 C.3     1  UNL1        0.0240
     18 C         143.7757  142.4011  169.7825 C.3     1  UNL1        0.0051
     19 C         143.3769  141.5360  168.6239 C.3     1  UNL1        0.0277
     20 N         139.6653  144.0252  163.4009 N.pl3   1  UNL1       -0.2004
     21 H         139.0676  144.5430  163.9873 H       1  UNL1        0.2982
     22 C         139.0960  143.2297  162.2638 C.2     1  UNL1        0.3331
     23 N         138.8884  143.7202  160.8615 N.2     1  UNL1        0.0753
     24 N         138.2983  142.5977  160.0604 N.2     1  UNL1       -0.0428
     25 C         138.1411  141.4134  160.9676 C.2     1  UNL1        0.0948
     26 C         137.5881  140.0739  160.5809 C.3     1  UNL1        0.0519
     27 C         138.6341  141.8040  162.3293 C.3     1  UNL1        0.1480
     28 C         138.6605  140.9237  163.5435 C.3     1  UNL1        0.0190
@<TRIPOS>BOND
     1    18    19    1
     2    19     1    1
     3     1     2   ar
     4     2     3   ar
     5     3     4   ar
     6     4     5   ar
     7     5     6   ar
     8     6     7   ar
     9     7    20    1
    10    20    22    1
    11    22    23    2
    12    23    24    1
    13    24    25    2
    14    25    26    1
    15    25    27    1
    16    27    28    1
    17     7     8   ar
    18     8     9   ar
    19     9    10   ar
    20    10    11    1
    21    11    12    2
    22    11    13    2
    23    11    14    1
    24    14    15    1
    25    14    16    1
    26    14    17    1
    27    10     1   ar
    28     8     3   ar
    29    27    22    1
    30    20    21    1
@<TRIPOS>MOLECULE
*****
 28 30 0 0 0
SMALL
GASTEIGER

@<TRIPOS>ATOM
      1 C         139.6523  140.5723  167.5470 C.ar    1  UNL1       -0.0036
      2 C         138.7943  140.0449  166.4354 C.ar    1  UNL1        0.0162
      3 C         138.7760  140.7413  165.1070 C.ar    1  UNL1        0.0844
      4 N         137.9181  140.2139  163.9954 N.ar    1  UNL1       -0.2436
      5 C         137.8998  140.9103  162.6670 C.ar    1  UNL1        0.1023
      6 C         138.7395  142.1342  162.4502 C.ar    1  UNL1        0.0608
      7 C         139.5975  142.6617  163.5618 C.ar    1  UNL1        0.1384
      8 C         139.6157  141.9652  164.8902 C.ar    1  UNL1        0.0558
      9 C         140.4737  142.4927  166.0019 C.ar    1  UNL1        0.0229
     10 C         140.4920  141.7962  167.3302 C.ar    1  UNL1        0.1018
     11 S         141.3500  142.3236  168.4419 S.O2    1  UNL1        0.0051
     12 O         140.2636  143.2845  168.8245 O.2     1  UNL1       -0.1687
     13 O         142.4363  141.3628  168.0593 O.2     1  UNL1       -0.1687
     14 C         142.2079  142.8510  169.5535 C.3     1  UNL1        0.1150
     15 C         141.0453  143.6419  170.0757 C.3     1  UNL1        0.0240
     16 C         143.3706  142.0601  169.0313 C.3     1  UNL1        0.0240
     17 C         143.0659  143.3784  170.6651 C.3     1  UNL1        0.0240
     18 C         138.6790  140.2555  169.9350 C.3     1  UNL1        0.0051
     19 C         139.6706  139.8759  168.8754 C.3     1  UNL1        0.0277
     20 N         140.4372  143.8856  163.3451 N.pl3   1  UNL1       -0.2004
     21 H         141.0349  144.2052  164.0591 H       1  UNL1        0.2982
     22 C         140.3662  144.6224  162.0405 C.2     1  UNL1        0.3331
     23 N         139.3597  145.6727  161.6747 N.2     1  UNL1        0.0753
     24 N         139.6608  146.1377  160.2806 N.2     1  UNL1       -0.0428
     25 C         140.8534  145.3748  159.7849 C.2     1  UNL1        0.0948
     26 C         141.4969  145.5224  158.4381 C.3     1  UNL1        0.0519
     27 C         141.2893  144.4383  160.8725 C.3     1  UNL1        0.1480
     28 C         142.4454  143.4850  160.8042 C.3     1  UNL1        0.0190
@<TRIPOS>BOND
     1    18    19    1
     2    19     1    1
     3     1     2   ar
     4     2     3   ar
     5     3     4   ar
     6     4     5   ar
     7     5     6   ar
     8     6     7   ar
     9     7    20    1
    10    20    22    1
    11    22    23    2
    12    23    24    1
    13    24    25    2
    14    25    26    1
    15    25    27    1
    16    27    28    1
    17     7     8   ar
    18     8     9   ar
    19     9    10   ar
    20    10    11    1
    21    11    12    2
    22    11    13    2
    23    11    14    1
    24    14    15    1
    25    14    16    1
    26    14    17    1
    27    10     1   ar
    28     8     3   ar
    29    27    22    1
    30    20    21    1
@<TRIPOS>MOLECULE
*****
 28 30 0 0 0
SMALL
GASTEIGER

@<TRIPOS>ATOM
      1 C         142.2998  140.7148  166.2739 C.ar    1  UNL1       -0.0036
      2 C         143.3995  141.6684  165.9114 C.ar    1  UNL1        0.0162
      3 C         143.0829  142.9277  165.1604 C.ar    1  UNL1        0.0844
      4 N         144.1825  143.8813  164.7979 N.ar    1  UNL1       -0.2436
      5 C         143.8658  145.1406  164.0470 C.ar    1  UNL1        0.1023
      6 C         142.4496  145.4463  163.6587 C.ar    1  UNL1        0.0608
      7 C         141.3500  144.4927  164.0212 C.ar    1  UNL1        0.1384
      8 C         141.6666  143.2334  164.7721 C.ar    1  UNL1        0.0558
      9 C         140.5670  142.2798  165.1347 C.ar    1  UNL1        0.0229
     10 C         140.8836  141.0205  165.8856 C.ar    1  UNL1        0.1018
     11 S         139.7840  140.0668  166.2482 S.O2    1  UNL1        0.0051
     12 O         139.9229  139.3987  164.9124 O.2     1  UNL1       -0.1687
     13 O         139.6451  140.7349  167.5839 O.2     1  UNL1       -0.1687
     14 C         138.6844  139.1132  166.6108 C.3     1  UNL1        0.1150
     15 C         138.6607  138.6041  165.2000 C.3     1  UNL1        0.0240
     16 C         138.7080  139.6224  168.0215 C.3     1  UNL1        0.0240
     17 C         137.5848  138.1596  166.9734 C.3     1  UNL1        0.0240
     18 C         143.3684  138.3478  166.3484 C.3     1  UNL1        0.0051
     19 C         142.6164  139.4554  167.0249 C.3     1  UNL1        0.0277
     20 N         139.9338  144.7984  163.6329 N.pl3   1  UNL1       -0.2004
     21 H         139.4323  145.4980  164.1108 H       1  UNL1        0.2982
     22 C         139.2815  144.0383  162.5163 C.2     1  UNL1        0.3331
     23 N         138.0443  143.1974  162.6270 N.2     1  UNL1        0.0753
     24 N         137.7501  142.6250  161.2720 N.2     1  UNL1       -0.0428
     25 C         138.8054  143.1122  160.3239 C.2     1  UNL1        0.0948
     26 C         138.8980  142.7837  158.8633 C.3     1  UNL1        0.0519
     27 C         139.7519  143.9857  161.0928 C.3     1  UNL1        0.1480
     28 C         140.9571  144.6840  160.5362 C.3     1  UNL1        0.0190
@<TRIPOS>BOND
     1    18    19    1
     2    19     1    1
     3     1     2   ar
     4     2     3   ar
     5     3     4   ar
     6     4     5   ar
     7     5     6   ar
     8     6     7   ar
     9     7    20    1
    10    20    22    1
    11    22    23    2
    12    23    24    1
    13    24    25    2
    14    25    26    1
    15    25    27    1
    16    27    28    1
    17     7     8   ar
    18     8     9   ar
    19     9    10   ar
    20    10    11    1
    21    11    12    2
    22    11    13    2
    23    11    14    1
    24    14    15    1
    25    14    16    1
    26    14    17    1
    27    10     1   ar
    28     8     3   ar
    29    27    22    1
    30    20    21    1
@<TRIPOS>MOLECULE
*****
 28 30 0 0 0
SMALL
GASTEIGER

@<TRIPOS>ATOM
      1 C         143.4714  142.9245  164.3827 C.ar    1  UNL1       -0.0036
      2 C         143.0757  144.2066  163.7120 C.ar    1  UNL1        0.0162
      3 C         141.6373  144.4622  163.3719 C.ar    1  UNL1        0.0844
      4 N         141.2416  145.7442  162.7012 N.ar    1  UNL1       -0.2436
      5 C         139.8033  145.9998  162.3611 C.ar    1  UNL1        0.1023
      6 C         138.7606  144.9734  162.6916 C.ar    1  UNL1        0.0608
      7 C         139.1562  143.6914  163.3623 C.ar    1  UNL1        0.1384
      8 C         140.5946  143.4358  163.7024 C.ar    1  UNL1        0.0558
      9 C         140.9903  142.1537  164.3731 C.ar    1  UNL1        0.0229
     10 C         142.4287  141.8981  164.7133 C.ar    1  UNL1        0.1018
     11 S         142.8244  140.6161  165.3840 S.O2    1  UNL1        0.0051
     12 O         142.7114  141.2818  166.7234 O.2     1  UNL1       -0.1687
     13 O         142.9374  139.9503  164.0446 O.2     1  UNL1       -0.1687
     14 C         143.2202  139.3341  166.0546 C.3     1  UNL1        0.1150
     15 C         143.8068  138.8407  164.7653 C.3     1  UNL1        0.0240
     16 C         142.6335  139.8274  167.3439 C.3     1  UNL1        0.0240
     17 C         143.6159  138.0520  166.7253 C.3     1  UNL1        0.0240
     18 C         145.7757  141.8864  163.7806 C.3     1  UNL1        0.0051
     19 C         144.9098  142.6689  164.7229 C.3     1  UNL1        0.0277
     20 N         138.1135  142.6650  163.6929 N.pl3   1  UNL1       -0.2004
     21 H         137.5380  142.7846  164.4826 H       1  UNL1        0.2982
     22 C         137.9477  141.4563  162.8201 C.2     1  UNL1        0.3331
     23 N         137.5793  141.4626  161.3661 N.2     1  UNL1        0.0753
     24 N         137.5251  140.0393  160.8955 N.2     1  UNL1       -0.0428
     25 C         137.8599  139.1534  162.0588 C.2     1  UNL1        0.0948
     26 C         137.9225  137.6549  162.0365 C.3     1  UNL1        0.0519
     27 C         138.1211  140.0292  163.2483 C.3     1  UNL1        0.1480
     28 C         138.4907  139.5602  164.6242 C.3     1  UNL1        0.0190
@<TRIPOS>BOND
     1    18    19    1
     2    19     1    1
     3     1     2   ar
     4     2     3   ar
     5     3     4   ar
     6     4     5   ar
     7     5     6   ar
     8     6     7   ar
     9     7    20    1
    10    20    22    1
    11    22    23    2
    12    23    24    1
    13    24    25    2
    14    25    26    1
    15    25    27    1
    16    27    28    1
    17     7     8   ar
    18     8     9   ar
    19     9    10   ar
    20    10    11    1
    21    11    12    2
    22    11    13    2
    23    11    14    1
    24    14    15    1
    25    14    16    1
    26    14    17    1
    27    10     1   ar
    28     8     3   ar
    29    27    22    1
    30    20    21    1
@<TRIPOS>MOLECULE
*****
 28 30 0 0 0
SMALL
GASTEIGER

@<TRIPOS>ATOM
      1 C         142.4154  139.9339  167.4013 C.ar    1  UNL1       -0.0036
      2 C         142.9309  139.0337  166.3179 C.ar    1  UNL1        0.0162
      3 C         143.4660  139.6214  165.0458 C.ar    1  UNL1        0.0844
      4 N         143.9815  138.7212  163.9624 N.ar    1  UNL1       -0.2436
      5 C         144.5167  139.3089  162.6903 C.ar    1  UNL1        0.1023
      6 C         144.5363  140.7969  162.5017 C.ar    1  UNL1        0.0608
      7 C         144.0209  141.6971  163.5851 C.ar    1  UNL1        0.1384
      8 C         143.4857  141.1094  164.8572 C.ar    1  UNL1        0.0558
      9 C         142.9702  142.0096  165.9407 C.ar    1  UNL1        0.0229
     10 C         142.4351  141.4219  167.2127 C.ar    1  UNL1        0.1018
     11 S         141.9196  142.3221  168.2962 S.O2    1  UNL1        0.0051
     12 O         140.5161  142.0924  167.8194 O.2     1  UNL1       -0.1687
     13 O         143.3231  142.5519  168.7730 O.2     1  UNL1       -0.1687
     14 C         141.4042  143.2223  169.3797 C.3     1  UNL1        0.1150
     15 C         140.1435  143.4423  168.5972 C.3     1  UNL1        0.0240
     16 C         142.6648  143.0024  170.1621 C.3     1  UNL1        0.0240
     17 C         140.8888  144.1225  170.4631 C.3     1  UNL1        0.0240
     18 C         142.7862  139.1644  169.8550 C.3     1  UNL1        0.0051
     19 C         141.8802  139.3462  168.6735 C.3     1  UNL1        0.0277
     20 N         144.0406  143.1851  163.3965 N.pl3   1  UNL1       -0.2004
     21 H         144.6720  143.7381  163.9109 H       1  UNL1        0.2982
     22 C         143.0983  143.8303  162.4241 C.2     1  UNL1        0.3331
     23 N         143.2400  143.8365  160.9308 N.2     1  UNL1        0.0753
     24 N         142.0780  144.5927  160.3580 N.2     1  UNL1       -0.0428
     25 C         141.2182  145.0540  161.4973 C.2     1  UNL1        0.0948
     26 C         139.9505  145.8471  161.3803 C.3     1  UNL1        0.0519
     27 C         141.8487  144.5828  162.7742 C.3     1  UNL1        0.1480
     28 C         141.3223  144.8221  164.1582 C.3     1  UNL1        0.0190
@<TRIPOS>BOND
     1    18    19    1
     2    19     1    1
     3     1     2   ar
     4     2     3   ar
     5     3     4   ar
     6     4     5   ar
     7     5     6   ar
     8     6     7   ar
     9     7    20    1
    10    20    22    1
    11    22    23    2
    12    23    24    1
    13    24    25    2
    14    25    26    1
    15    25    27    1
    16    27    28    1
    17     7     8   ar
    18     8     9   ar
    19     9    10   ar
    20    10    11    1
    21    11    12    2
    22    11    13    2
    23    11    14    1
    24    14    15    1
    25    14    16    1
    26    14    17    1
    27    10     1   ar
    28     8     3   ar
    29    27    22    1
    30    20    21    1
@<TRIPOS>MOLECULE
*****
 28 30 0 0 0
SMALL
GASTEIGER

@<TRIPOS>ATOM
      1 C         141.9696  141.1708  167.1010 C.ar    1  UNL1       -0.0036
      2 C         140.7357  140.7885  167.8633 C.ar    1  UNL1        0.0162
      3 C         139.7742  139.7936  167.2838 C.ar    1  UNL1        0.0844
      4 N         138.5402  139.4113  168.0461 N.ar    1  UNL1       -0.2436
      5 C         137.5788  138.4164  167.4666 C.ar    1  UNL1        0.1023
      6 C         137.8513  137.8039  166.1248 C.ar    1  UNL1        0.0608
      7 C         139.0852  138.1862  165.3624 C.ar    1  UNL1        0.1384
      8 C         140.0467  139.1811  165.9420 C.ar    1  UNL1        0.0558
      9 C         141.2807  139.5634  165.1796 C.ar    1  UNL1        0.0229
     10 C         142.2421  140.5583  165.7591 C.ar    1  UNL1        0.1018
     11 S         143.4761  140.9407  164.9968 S.O2    1  UNL1        0.0051
     12 O         142.8047  142.2029  164.5430 O.2     1  UNL1       -0.1687
     13 O         144.1475  139.6784  165.4506 O.2     1  UNL1       -0.1687
     14 C         144.7101  141.3230  164.2345 C.3     1  UNL1        0.1150
     15 C         145.0689  139.8739  164.0886 C.3     1  UNL1        0.0240
     16 C         144.3512  142.7721  164.3803 C.3     1  UNL1        0.0240
     17 C         145.9440  141.7053  163.4722 C.3     1  UNL1        0.0240
     18 C         143.2719  142.1168  169.1404 C.3     1  UNL1        0.0051
     19 C         142.9311  142.1657  167.6805 C.3     1  UNL1        0.0277
     20 N         139.3577  137.5737  164.0206 N.pl3   1  UNL1       -0.2004
     21 H         139.7003  136.6526  163.9603 H       1  UNL1        0.2982
     22 C         139.1084  138.3644  162.7706 C.2     1  UNL1        0.3331
     23 N         137.8618  139.1337  162.4479 N.2     1  UNL1        0.0753
     24 N         138.0448  139.7695  161.1016 N.2     1  UNL1       -0.0428
     25 C         139.4047  139.3931  160.5923 C.2     1  UNL1        0.0948
     26 C         140.0022  139.8115  159.2817 C.3     1  UNL1        0.0519
     27 C         140.0620  138.5247  161.6238 C.3     1  UNL1        0.1480
     28 C         141.4322  137.9224  161.5257 C.3     1  UNL1        0.0190
@<TRIPOS>BOND
     1    18    19    1
     2    19     1    1
     3     1     2   ar
     4     2     3   ar
     5     3     4   ar
     6     4     5   ar
     7     5     6   ar
     8     6     7   ar
     9     7    20    1
    10    20    22    1
    11    22    23    2
    12    23    24    1
    13    24    25    2
    14    25    26    1
    15    25    27    1
    16    27    28    1
    17     7     8   ar
    18     8     9   ar
    19     9    10   ar
    20    10    11    1
    21    11    12    2
    22    11    13    2
    23    11    14    1
    24    14    15    1
    25    14    16    1
    26    14    17    1
    27    10     1   ar
    28     8     3   ar
    29    27    22    1
    30    20    21    1
