@<TRIPOS>MOLECULE
*****
 19 20 0 0 0
SMALL
GASTEIGER

@<TRIPOS>ATOM
      1 C         140.7274  141.8466  167.4768 C.ar    1  UNL1        0.0511
      2 C         139.9682  140.5951  167.1493 C.ar    1  UNL1        0.0163
      3 C         139.2482  139.8493  168.2334 C.ar    1  UNL1        0.0253
      4 C         139.2875  140.3549  169.6450 C.ar    1  UNL1        0.1365
      5 C         140.0467  141.6064  169.9725 C.ar    1  UNL1        0.1541
      6 O         140.0861  142.1121  171.3842 O.3     1  UNL1       -0.5039
      7 C         140.7667  142.3522  168.8884 C.ar    1  UNL1        0.0527
      8 H         139.6363  141.6462  172.0615 H       1  UNL1        0.2923
      9 C         140.6822  143.4837  165.4599 C.3     1  UNL1        0.1122
     10 N         141.4474  142.5924  166.3926 N.pl3   1  UNL1       -0.3040
     11 C         142.9326  142.4470  166.2412 C.3     1  UNL1        0.1122
     12 N         138.5675  139.6090  170.7292 N.2     1  UNL1       -0.1435
     13 N         137.2753  138.9097  170.4276 N.2     1  UNL1       -0.1284
     14 C         136.5553  138.1639  171.5117 C.ar    1  UNL1        0.1838
     15 C         135.2465  138.6781  172.0340 C.ar    1  UNL1        0.0406
     16 C         134.5265  137.9323  173.1181 C.ar    1  UNL1        0.0048
     17 C         135.1154  136.6722  173.6800 C.ar    1  UNL1        0.0208
     18 C         136.4241  136.1580  173.1577 C.ar    1  UNL1        0.1006
     19 N         137.1441  136.9039  172.0736 N.ar    1  UNL1       -0.2236
@<TRIPOS>BOND
     1     9    10    1
     2    10    11    1
     3    10     1    1
     4     1     2   ar
     5     2     3   ar
     6     3     4   ar
     7     4    12    1
     8    12    13    2
     9    13    14    1
    10    14    15   ar
    11    15    16   ar
    12    16    17   ar
    13    17    18   ar
    14    18    19   ar
    15     4     5   ar
    16     5     6    1
    17     5     7   ar
    18     7     1   ar
    19    19    14   ar
    20     6     8    1
@<TRIPOS>MOLECULE
*****
 19 20 0 0 0
SMALL
GASTEIGER

@<TRIPOS>ATOM
      1 C         139.1413  139.8429  160.5401 C.ar    1  UNL1        0.0511
      2 C         140.2996  139.5187  161.4363 C.ar    1  UNL1        0.0163
      3 C         140.2126  139.8027  162.9066 C.ar    1  UNL1        0.0253
      4 C         138.9674  140.4107  163.4807 C.ar    1  UNL1        0.1365
      5 C         137.8091  140.7348  162.5845 C.ar    1  UNL1        0.1541
      6 O         136.5638  141.3429  163.1585 O.3     1  UNL1       -0.5039
      7 C         137.8960  140.4509  161.1141 C.ar    1  UNL1        0.0527
      8 H         136.5095  141.5203  164.0770 H       1  UNL1        0.2923
      9 C         140.0610  138.4137  158.5750 C.3     1  UNL1        0.1122
     10 N         139.2282  139.5589  159.0697 N.pl3   1  UNL1       -0.3040
     11 C         138.4823  140.4202  158.0942 C.3     1  UNL1        0.1122
     12 N         138.8805  140.6947  164.9510 N.2     1  UNL1       -0.1435
     13 N         140.1322  140.9139  165.7478 N.2     1  UNL1       -0.1284
     14 C         140.0453  141.1978  167.2181 C.ar    1  UNL1        0.1838
     15 C         139.5213  140.1497  168.1547 C.ar    1  UNL1        0.0406
     16 C         139.4343  140.4337  169.6250 C.ar    1  UNL1        0.0048
     17 C         139.8714  141.7657  170.1588 C.ar    1  UNL1        0.0208
     18 C         140.3954  142.8137  169.2222 C.ar    1  UNL1        0.1006
     19 N         140.4823  142.5297  167.7519 N.ar    1  UNL1       -0.2236
@<TRIPOS>BOND
     1     9    10    1
     2    10    11    1
     3    10     1    1
     4     1     2   ar
     5     2     3   ar
     6     3     4   ar
     7     4    12    1
     8    12    13    2
     9    13    14    1
    10    14    15   ar
    11    15    16   ar
    12    16    17   ar
    13    17    18   ar
    14    18    19   ar
    15     4     5   ar
    16     5     6    1
    17     5     7   ar
    18     7     1   ar
    19    19    14   ar
    20     6     8    1
@<TRIPOS>MOLECULE
*****
 19 20 0 0 0
SMALL
GASTEIGER

@<TRIPOS>ATOM
      1 C         139.0170  138.9325  164.9371 C.ar    1  UNL1        0.0511
      2 C         138.2410  139.7049  163.9118 C.ar    1  UNL1        0.0163
      3 C         138.5190  139.5024  162.4517 C.ar    1  UNL1        0.0253
      4 C         139.5729  138.5276  162.0170 C.ar    1  UNL1        0.1365
      5 C         140.3488  137.7553  163.0423 C.ar    1  UNL1        0.1541
      6 O         141.4028  136.7804  162.6077 O.3     1  UNL1       -0.5039
      7 C         140.0709  137.9578  164.5024 C.ar    1  UNL1        0.0527
      8 H         141.5765  136.6539  161.6956 H       1  UNL1        0.2923
      9 C         139.6029  140.0583  167.2041 C.3     1  UNL1        0.1122
     10 N         138.7390  139.1350  166.3972 N.pl3   1  UNL1       -0.3040
     11 C         137.5972  138.4142  167.0503 C.3     1  UNL1        0.1122
     12 N         139.8508  138.3251  160.5570 N.2     1  UNL1       -0.1435
     13 N         141.2488  138.4691  160.0326 N.2     1  UNL1       -0.1284
     14 C         141.5267  138.2666  158.5725 C.ar    1  UNL1        0.1838
     15 C         140.3923  138.0405  157.6174 C.ar    1  UNL1        0.0406
     16 C         140.6703  137.8380  156.1574 C.ar    1  UNL1        0.0048
     17 C         142.0826  137.8617  155.6524 C.ar    1  UNL1        0.0208
     18 C         143.2169  138.0878  156.6075 C.ar    1  UNL1        0.1006
     19 N         142.9389  138.2903  158.0676 N.ar    1  UNL1       -0.2236
@<TRIPOS>BOND
     1     9    10    1
     2    10    11    1
     3    10     1    1
     4     1     2   ar
     5     2     3   ar
     6     3     4   ar
     7     4    12    1
     8    12    13    2
     9    13    14    1
    10    14    15   ar
    11    15    16   ar
    12    16    17   ar
    13    17    18   ar
    14    18    19   ar
    15     4     5   ar
    16     5     6    1
    17     5     7   ar
    18     7     1   ar
    19    19    14   ar
    20     6     8    1
@<TRIPOS>MOLECULE
*****
 19 20 0 0 0
SMALL
GASTEIGER

@<TRIPOS>ATOM
      1 C         143.5976  142.5279  160.5022 C.ar    1  UNL1        0.0511
      2 C         142.3544  142.5478  161.3412 C.ar    1  UNL1        0.0163
      3 C         142.4465  142.3391  162.8237 C.ar    1  UNL1        0.0253
      4 C         143.7820  142.1105  163.4673 C.ar    1  UNL1        0.1365
      5 C         145.0252  142.0906  162.6284 C.ar    1  UNL1        0.1541
      6 O         146.3608  141.8619  163.2720 O.3     1  UNL1       -0.5039
      7 C         144.9331  142.2993  161.1459 C.ar    1  UNL1        0.0527
      8 H         146.4184  141.7315  164.1981 H       1  UNL1        0.2923
      9 C         144.7359  142.6267  158.1689 C.3     1  UNL1        0.1122
     10 N         143.5055  142.7367  159.0197 N.pl3   1  UNL1       -0.3040
     11 C         142.1829  143.0554  158.3880 C.3     1  UNL1        0.1122
     12 N         143.8741  141.9017  164.9499 N.2     1  UNL1       -0.1435
     13 N         142.6864  141.3916  165.7107 N.2     1  UNL1       -0.1284
     14 C         142.7785  141.1828  167.1933 C.ar    1  UNL1        0.1838
     15 C         143.3008  142.2790  168.0740 C.ar    1  UNL1        0.0406
     16 C         143.3930  142.0703  169.5565 C.ar    1  UNL1        0.0048
     17 C         142.9629  140.7653  170.1583 C.ar    1  UNL1        0.0208
     18 C         142.4406  139.6692  169.2776 C.ar    1  UNL1        0.1006
     19 N         142.3484  139.8780  167.7951 N.ar    1  UNL1       -0.2236
@<TRIPOS>BOND
     1     9    10    1
     2    10    11    1
     3    10     1    1
     4     1     2   ar
     5     2     3   ar
     6     3     4   ar
     7     4    12    1
     8    12    13    2
     9    13    14    1
    10    14    15   ar
    11    15    16   ar
    12    16    17   ar
    13    17    18   ar
    14    18    19   ar
    15     4     5   ar
    16     5     6    1
    17     5     7   ar
    18     7     1   ar
    19    19    14   ar
    20     6     8    1
@<TRIPOS>MOLECULE
*****
 19 20 0 0 0
SMALL
GASTEIGER

@<TRIPOS>ATOM
      1 C         144.2461  141.1480  161.4409 C.ar    1  UNL1        0.0511
      2 C         143.7283  141.6797  160.1374 C.ar    1  UNL1        0.0163
      3 C         143.1408  140.7416  159.1251 C.ar    1  UNL1        0.0253
      4 C         143.0711  139.2718  159.4163 C.ar    1  UNL1        0.1365
      5 C         143.5889  138.7401  160.7197 C.ar    1  UNL1        0.1541
      6 O         143.5192  137.2702  161.0109 O.3     1  UNL1       -0.5039
      7 C         144.1764  139.6782  161.7321 C.ar    1  UNL1        0.0527
      8 H         143.1522  136.6842  160.3786 H       1  UNL1        0.2923
      9 C         144.5012  143.5478  162.4029 C.3     1  UNL1        0.1122
     10 N         144.8337  142.0861  162.4532 N.pl3   1  UNL1       -0.3040
     11 C         145.7537  141.5624  163.5159 C.3     1  UNL1        0.1122
     12 N         142.4835  138.3337  158.4039 N.2     1  UNL1       -0.1435
     13 N         143.1903  137.0540  158.0683 N.2     1  UNL1       -0.1284
     14 C         142.6028  136.1159  157.0560 C.ar    1  UNL1        0.1838
     15 C         143.1401  134.7215  156.9250 C.ar    1  UNL1        0.0406
     16 C         142.5525  133.7835  155.9126 C.ar    1  UNL1        0.0048
     17 C         141.4277  134.2398  155.0313 C.ar    1  UNL1        0.0208
     18 C         140.8905  135.6341  155.1624 C.ar    1  UNL1        0.1006
     19 N         141.4780  136.5722  156.1747 N.ar    1  UNL1       -0.2236
@<TRIPOS>BOND
     1     9    10    1
     2    10    11    1
     3    10     1    1
     4     1     2   ar
     5     2     3   ar
     6     3     4   ar
     7     4    12    1
     8    12    13    2
     9    13    14    1
    10    14    15   ar
    11    15    16   ar
    12    16    17   ar
    13    17    18   ar
    14    18    19   ar
    15     4     5   ar
    16     5     6    1
    17     5     7   ar
    18     7     1   ar
    19    19    14   ar
    20     6     8    1
@<TRIPOS>MOLECULE
*****
 19 20 0 0 0
SMALL
GASTEIGER

@<TRIPOS>ATOM
      1 C         138.5270  139.2872  164.2017 C.ar    1  UNL1        0.0511
      2 C         138.5189  138.0966  163.2894 C.ar    1  UNL1        0.0163
      3 C         138.1989  138.2689  161.8341 C.ar    1  UNL1        0.0253
      4 C         137.8869  139.6319  161.2911 C.ar    1  UNL1        0.1365
      5 C         137.8950  140.8226  162.2034 C.ar    1  UNL1        0.1541
      6 O         137.5830  142.1856  161.6604 O.3     1  UNL1       -0.5039
      7 C         138.2150  140.6502  163.6587 C.ar    1  UNL1        0.0527
      8 H         137.3831  142.2933  160.7513 H       1  UNL1        0.2923
      9 C         140.0354  139.8111  166.2511 C.3     1  UNL1        0.1122
     10 N         138.8470  139.1149  165.6570 N.pl3   1  UNL1       -0.3040
     11 C         137.9787  138.2464  166.5181 C.3     1  UNL1        0.1122
     12 N         137.5669  139.8043  159.8358 N.2     1  UNL1       -0.1435
     13 N         138.1522  140.9537  159.0702 N.2     1  UNL1       -0.1284
     14 C         137.8321  141.1260  157.6149 C.ar    1  UNL1        0.1838
     15 C         137.3624  142.4553  157.1026 C.ar    1  UNL1        0.0406
     16 C         137.0423  142.6277  155.6473 C.ar    1  UNL1        0.0048
     17 C         137.1920  141.4707  154.7043 C.ar    1  UNL1        0.0208
     18 C         137.6617  140.1415  155.2166 C.ar    1  UNL1        0.1006
     19 N         137.9818  139.9691  156.6719 N.ar    1  UNL1       -0.2236
@<TRIPOS>BOND
     1     9    10    1
     2    10    11    1
     3    10     1    1
     4     1     2   ar
     5     2     3   ar
     6     3     4   ar
     7     4    12    1
     8    12    13    2
     9    13    14    1
    10    14    15   ar
    11    15    16   ar
    12    16    17   ar
    13    17    18   ar
    14    18    19   ar
    15     4     5   ar
    16     5     6    1
    17     5     7   ar
    18     7     1   ar
    19    19    14   ar
    20     6     8    1
@<TRIPOS>MOLECULE
*****
 19 20 0 0 0
SMALL
GASTEIGER

@<TRIPOS>ATOM
      1 C         142.2045  137.7266  158.4507 C.ar    1  UNL1        0.0511
      2 C         140.8639  138.3978  158.4972 C.ar    1  UNL1        0.0163
      3 C         140.2945  138.8459  159.8106 C.ar    1  UNL1        0.0253
      4 C         141.0658  138.6228  161.0776 C.ar    1  UNL1        0.1365
      5 C         142.4064  137.9516  161.0311 C.ar    1  UNL1        0.1541
      6 O         143.1778  137.7285  162.2982 O.3     1  UNL1       -0.5039
      7 C         142.9758  137.5035  159.7177 C.ar    1  UNL1        0.0527
      8 H         142.8222  138.0084  163.1186 H       1  UNL1        0.2923
      9 C         143.2018  138.2941  156.1198 C.3     1  UNL1        0.1122
     10 N         142.7739  137.2785  157.1373 N.pl3   1  UNL1       -0.3040
     11 C         142.9153  135.8148  156.8415 C.3     1  UNL1        0.1122
     12 N         140.4965  139.0709  162.3910 N.2     1  UNL1       -0.1435
     13 N         140.5577  138.1634  163.5837 N.2     1  UNL1       -0.1284
     14 C         139.9883  138.6115  164.8971 C.ar    1  UNL1        0.1838
     15 C         138.5968  138.2096  165.2875 C.ar    1  UNL1        0.0406
     16 C         138.0275  138.6577  166.6009 C.ar    1  UNL1        0.0048
     17 C         138.8496  139.5077  167.5239 C.ar    1  UNL1        0.0208
     18 C         140.2410  139.9095  167.1334 C.ar    1  UNL1        0.1006
     19 N         140.8104  139.4614  165.8200 N.ar    1  UNL1       -0.2236
@<TRIPOS>BOND
     1     9    10    1
     2    10    11    1
     3    10     1    1
     4     1     2   ar
     5     2     3   ar
     6     3     4   ar
     7     4    12    1
     8    12    13    2
     9    13    14    1
    10    14    15   ar
    11    15    16   ar
    12    16    17   ar
    13    17    18   ar
    14    18    19   ar
    15     4     5   ar
    16     5     6    1
    17     5     7   ar
    18     7     1   ar
    19    19    14   ar
    20     6     8    1
@<TRIPOS>MOLECULE
*****
 19 20 0 0 0
SMALL
GASTEIGER

@<TRIPOS>ATOM
      1 C         139.9395  143.7129  161.0973 C.ar    1  UNL1        0.0511
      2 C         140.0804  142.2526  161.4094 C.ar    1  UNL1        0.0163
      3 C         139.9736  141.7749  162.8273 C.ar    1  UNL1        0.0253
      4 C         139.7259  142.7576  163.9331 C.ar    1  UNL1        0.1365
      5 C         139.5851  144.2180  163.6211 C.ar    1  UNL1        0.1541
      6 O         139.3374  145.2008  164.7269 O.3     1  UNL1       -0.5039
      7 C         139.6918  144.6956  162.2032 C.ar    1  UNL1        0.0527
      8 H         139.2707  144.9024  165.6126 H       1  UNL1        0.2923
      9 C         139.3771  143.4241  158.5774 C.3     1  UNL1        0.1122
     10 N         140.0463  144.1906  159.6794 N.pl3   1  UNL1       -0.3040
     11 C         140.8222  145.4348  159.3636 C.3     1  UNL1        0.1122
     12 N         139.6191  142.2800  165.3510 N.2     1  UNL1       -0.1435
     13 N         140.5486  142.8209  166.3967 N.2     1  UNL1       -0.1284
     14 C         140.4418  142.3432  167.8146 C.ar    1  UNL1        0.1838
     15 C         140.4071  143.3350  168.9395 C.ar    1  UNL1        0.0406
     16 C         140.3003  142.8573  170.3574 C.ar    1  UNL1        0.0048
     17 C         140.2282  141.3879  170.6504 C.ar    1  UNL1        0.0208
     18 C         140.2629  140.3963  169.5255 C.ar    1  UNL1        0.1006
     19 N         140.3697  140.8739  168.1076 N.ar    1  UNL1       -0.2236
@<TRIPOS>BOND
     1     9    10    1
     2    10    11    1
     3    10     1    1
     4     1     2   ar
     5     2     3   ar
     6     3     4   ar
     7     4    12    1
     8    12    13    2
     9    13    14    1
    10    14    15   ar
    11    15    16   ar
    12    16    17   ar
    13    17    18   ar
    14    18    19   ar
    15     4     5   ar
    16     5     6    1
    17     5     7   ar
    18     7     1   ar
    19    19    14   ar
    20     6     8    1
@<TRIPOS>MOLECULE
*****
 19 20 0 0 0
SMALL
GASTEIGER

@<TRIPOS>ATOM
      1 C         141.1214  138.4004  160.8884 C.ar    1  UNL1        0.0511
      2 C         139.8039  138.0626  161.5209 C.ar    1  UNL1        0.0163
      3 C         139.6498  138.1245  163.0117 C.ar    1  UNL1        0.0253
      4 C         140.8132  138.5242  163.8700 C.ar    1  UNL1        0.1365
      5 C         142.1307  138.8620  163.2375 C.ar    1  UNL1        0.1541
      6 O         143.2941  139.2617  164.0958 O.3     1  UNL1       -0.5039
      7 C         142.2848  138.8001  161.7467 C.ar    1  UNL1        0.0527
      8 H         143.1979  139.3004  165.0271 H       1  UNL1        0.2923
      9 C         142.6124  138.0245  158.7942 C.3     1  UNL1        0.1122
     10 N         141.2755  138.3385  159.3977 N.pl3   1  UNL1       -0.3040
     11 C         140.0927  138.5906  158.5103 C.3     1  UNL1        0.1122
     12 N         140.6591  138.5861  165.3608 N.2     1  UNL1       -0.1435
     13 N         141.0025  139.8461  166.0986 N.2     1  UNL1       -0.1284
     14 C         140.8484  139.9080  167.5894 C.ar    1  UNL1        0.1838
     15 C         139.5269  140.2833  168.1918 C.ar    1  UNL1        0.0406
     16 C         139.3728  140.3452  169.6826 C.ar    1  UNL1        0.0048
     17 C         140.5402  140.0318  170.5709 C.ar    1  UNL1        0.0208
     18 C         141.8616  139.6564  169.9685 C.ar    1  UNL1        0.1006
     19 N         142.0157  139.5945  168.4777 N.ar    1  UNL1       -0.2236
@<TRIPOS>BOND
     1     9    10    1
     2    10    11    1
     3    10     1    1
     4     1     2   ar
     5     2     3   ar
     6     3     4   ar
     7     4    12    1
     8    12    13    2
     9    13    14    1
    10    14    15   ar
    11    15    16   ar
    12    16    17   ar
    13    17    18   ar
    14    18    19   ar
    15     4     5   ar
    16     5     6    1
    17     5     7   ar
    18     7     1   ar
    19    19    14   ar
    20     6     8    1
