@<TRIPOS>MOLECULE
*****
 29 33 0 0 0
SMALL
GASTEIGER

@<TRIPOS>ATOM
      1 C         137.8862  139.6681  169.9734 C.3     1  UNL1        0.1726
      2 O         137.6803  139.0395  168.6271 O.3     1  UNL1       -0.4792
      3 C         138.7054  139.2252  167.5479 C.ar    1  UNL1        0.1362
      4 C         138.4996  138.5966  166.2017 C.ar    1  UNL1        0.0366
      5 C         139.5247  138.7824  165.1225 C.ar    1  UNL1        0.0032
      6 C         140.7557  139.5968  165.3896 C.ar    1  UNL1        0.0029
      7 C         140.9616  140.2254  166.7359 C.ar    1  UNL1        0.0007
      8 C         139.9364  140.0396  167.8151 C.ar    1  UNL1        0.0357
      9 C         140.1423  140.6682  169.1614 C.3     1  UNL1        0.1582
     10 C         141.2486  140.9401  168.1855 C.3     1  UNL1        0.2351
     11 O         142.2732  141.7937  168.8723 O.2     1  UNL1       -0.4478
     12 C         141.8002  142.0493  170.2726 C.2     1  UNL1        0.2770
     13 N         142.5181  142.8585  171.3118 N.pl3   1  UNL1       -0.3133
     14 N         140.4832  141.3538  170.4513 N.2     1  UNL1       -0.2202
     15 C         139.1172  140.4825  170.2405 C.3     1  UNL1        0.1174
     16 C         139.0597  140.3071  169.8649 C.3     1  UNL1        0.1502
     17 O         139.1201  140.4914  170.2597 O.3     1  UNL1       -0.3532
     18 C         139.0597  140.3071  169.8649 C.3     1  UNL1        0.1502
     19 H         143.3824  143.2785  171.0982 H       1  UNL1        0.1466
     20 H         142.1249  142.9695  172.2075 H       1  UNL1        0.1466
     21 C         141.7809  139.7826  164.3105 C.ar    1  UNL1        0.0384
     22 C         142.8870  138.7827  164.1466 C.ar    1  UNL1        0.1022
     23 N         143.9121  138.9685  163.0675 N.ar    1  UNL1       -0.2224
     24 C         143.8312  140.1541  162.1522 C.ar    1  UNL1        0.1989
     25 N         142.7251  141.1540  162.3161 N.ar    1  UNL1       -0.2224
     26 C         141.6999  140.9682  163.3952 C.ar    1  UNL1        0.1022
     27 C         136.8610  139.4823  171.0525 C.3     1  UNL1        0.0438
     28 C         136.2836  137.2751  172.2956 C.3     1  UNL1        0.0001
     29 C         136.0818  138.2032  171.1346 C.3     1  UNL1        0.0037
@<TRIPOS>BOND
     1    28    29    1
     2    29    27    1
     3    27     1    1
     4     1     2    1
     5     2     3    1
     6     3     4   ar
     7     4     5   ar
     8     5     6   ar
     9     6    21    1
    10    21    22   ar
    11    22    23   ar
    12    23    24   ar
    13    24    25   ar
    14    25    26   ar
    15     6     7   ar
    16     7     8   ar
    17     8     9    1
    18     9    10    1
    19    10    11    1
    20    11    12    1
    21    12    13    1
    22    12    14    2
    23     9    15    1
    24    15    16    1
    25    16    17    1
    26    17    18    1
    27    15     1    1
    28     8     3   ar
    29    14     9    1
    30    18    15    1
    31    26    21   ar
    32    13    19    1
    33    13    20    1
@<TRIPOS>MOLECULE
*****
 29 33 0 0 0
SMALL
GASTEIGER

@<TRIPOS>ATOM
      1 C         140.8966  141.5054  168.6044 C.3     1  UNL1        0.1726
      2 O         141.4284  142.3956  167.5205 O.3     1  UNL1       -0.4792
      3 C         140.9160  142.2574  166.1176 C.ar    1  UNL1        0.1362
      4 C         141.4478  143.1476  165.0337 C.ar    1  UNL1        0.0366
      5 C         140.9353  143.0093  163.6308 C.ar    1  UNL1        0.0032
      6 C         139.8910  141.9809  163.3117 C.ar    1  UNL1        0.0029
      7 C         139.3592  141.0907  164.3955 C.ar    1  UNL1        0.0007
      8 C         139.8717  141.2290  165.7985 C.ar    1  UNL1        0.0357
      9 C         139.3399  140.3388  166.8824 C.3     1  UNL1        0.1582
     10 C         138.7351  140.0855  165.5332 C.3     1  UNL1        0.2351
     11 O         137.7384  138.9732  165.6735 O.2     1  UNL1       -0.4478
     12 C         137.7273  138.5391  167.1092 C.2     1  UNL1        0.2770
     13 N         136.8759  137.4519  167.6950 N.pl3   1  UNL1       -0.3133
     14 N         138.7171  139.3831  167.8564 N.2     1  UNL1       -0.2202
     15 C         139.8524  140.4770  168.2853 C.3     1  UNL1        0.1174
     16 C         140.0007  140.7254  167.9829 C.3     1  UNL1        0.1502
     17 O         139.8448  140.4643  168.3008 O.3     1  UNL1       -0.3532
     18 C         140.0007  140.7254  167.9829 C.3     1  UNL1        0.1502
     19 H         136.2527  136.9512  167.1204 H       1  UNL1        0.1466
     20 H         136.9402  137.2391  168.6541 H       1  UNL1        0.1466
     21 C         139.3786  141.8426  161.9088 C.ar    1  UNL1        0.0384
     22 C         139.3021  140.4884  161.2682 C.ar    1  UNL1        0.1022
     23 N         138.7897  140.3501  159.8653 N.ar    1  UNL1       -0.2224
     24 C         138.3537  141.5661  159.1028 C.ar    1  UNL1        0.1989
     25 N         138.4301  142.9203  159.7433 N.ar    1  UNL1       -0.2224
     26 C         138.9425  143.0586  161.1463 C.ar    1  UNL1        0.1022
     27 C         141.4091  141.6437  170.0074 C.3     1  UNL1        0.0438
     28 C         143.9081  142.3487  169.9167 C.3     1  UNL1        0.0001
     29 C         142.4910  142.6357  170.3163 C.3     1  UNL1        0.0037
@<TRIPOS>BOND
     1    28    29    1
     2    29    27    1
     3    27     1    1
     4     1     2    1
     5     2     3    1
     6     3     4   ar
     7     4     5   ar
     8     5     6   ar
     9     6    21    1
    10    21    22   ar
    11    22    23   ar
    12    23    24   ar
    13    24    25   ar
    14    25    26   ar
    15     6     7   ar
    16     7     8   ar
    17     8     9    1
    18     9    10    1
    19    10    11    1
    20    11    12    1
    21    12    13    1
    22    12    14    2
    23     9    15    1
    24    15    16    1
    25    16    17    1
    26    17    18    1
    27    15     1    1
    28     8     3   ar
    29    14     9    1
    30    18    15    1
    31    26    21   ar
    32    13    19    1
    33    13    20    1
@<TRIPOS>MOLECULE
*****
 29 33 0 0 0
SMALL
GASTEIGER

@<TRIPOS>ATOM
      1 C         142.5275  138.9727  169.6276 C.3     1  UNL1        0.1726
      2 O         143.0546  138.8949  168.2254 O.3     1  UNL1       -0.4792
      3 C         142.6965  139.9578  167.2295 C.ar    1  UNL1        0.1362
      4 C         143.2237  139.8800  165.8273 C.ar    1  UNL1        0.0366
      5 C         142.8656  140.9429  164.8314 C.ar    1  UNL1        0.0032
      6 C         141.9804  142.0837  165.2376 C.ar    1  UNL1        0.0029
      7 C         141.4533  142.1616  166.6397 C.ar    1  UNL1        0.0007
      8 C         141.8114  141.0986  167.6357 C.ar    1  UNL1        0.0357
      9 C         141.2842  141.1764  169.0379 C.3     1  UNL1        0.1582
     10 C         140.8429  142.3072  168.1565 C.3     1  UNL1        0.2351
     11 O         139.9708  143.2164  168.9708 O.2     1  UNL1       -0.4478
     12 C         139.8732  142.6476  170.3553 C.2     1  UNL1        0.2770
     13 N         139.0997  143.2362  171.4977 N.pl3   1  UNL1       -0.3133
     14 N         140.6850  141.3868  170.3968 N.2     1  UNL1       -0.2202
     15 C         141.6423  140.1135  170.0338 C.3     1  UNL1        0.1174
     16 C         141.7894  140.0918  169.6426 C.3     1  UNL1        0.1502
     17 O         141.6348  140.1146  170.0538 O.3     1  UNL1       -0.3532
     18 C         141.7894  140.0918  169.6426 C.3     1  UNL1        0.1502
     19 H         138.5950  144.0721  171.3717 H       1  UNL1        0.1466
     20 H         139.0967  142.7867  172.3736 H       1  UNL1        0.1466
     21 C         141.6223  143.1467  164.2416 C.ar    1  UNL1        0.0384
     22 C         140.4149  144.0081  164.4655 C.ar    1  UNL1        0.1022
     23 N         140.0569  145.0711  163.4696 N.ar    1  UNL1       -0.2224
     24 C         140.9062  145.2726  162.2497 C.ar    1  UNL1        0.1989
     25 N         142.1135  144.4112  162.0258 N.ar    1  UNL1       -0.2224
     26 C         142.4717  143.3482  163.0218 C.ar    1  UNL1        0.1022
     27 C         142.8856  137.9097  170.6235 C.3     1  UNL1        0.0438
     28 C         144.4228  135.9489  171.3601 C.3     1  UNL1        0.0001
     29 C         143.9864  136.9373  170.3194 C.3     1  UNL1        0.0037
@<TRIPOS>BOND
     1    28    29    1
     2    29    27    1
     3    27     1    1
     4     1     2    1
     5     2     3    1
     6     3     4   ar
     7     4     5   ar
     8     5     6   ar
     9     6    21    1
    10    21    22   ar
    11    22    23   ar
    12    23    24   ar
    13    24    25   ar
    14    25    26   ar
    15     6     7   ar
    16     7     8   ar
    17     8     9    1
    18     9    10    1
    19    10    11    1
    20    11    12    1
    21    12    13    1
    22    12    14    2
    23     9    15    1
    24    15    16    1
    25    16    17    1
    26    17    18    1
    27    15     1    1
    28     8     3   ar
    29    14     9    1
    30    18    15    1
    31    26    21   ar
    32    13    19    1
    33    13    20    1
@<TRIPOS>MOLECULE
*****
 29 33 0 0 0
SMALL
GASTEIGER

@<TRIPOS>ATOM
      1 C         140.8811  141.1796  168.6347 C.3     1  UNL1        0.1726
      2 O         141.7097  141.6387  167.4717 O.3     1  UNL1       -0.4792
      3 C         141.3856  141.1643  166.0862 C.ar    1  UNL1        0.1362
      4 C         142.2142  141.6234  164.9232 C.ar    1  UNL1        0.0366
      5 C         141.8901  141.1489  163.5376 C.ar    1  UNL1        0.0032
      6 C         140.7374  140.2152  163.3150 C.ar    1  UNL1        0.0029
      7 C         139.9087  139.7561  164.4780 C.ar    1  UNL1        0.0007
      8 C         140.2329  140.2306  165.8637 C.ar    1  UNL1        0.0357
      9 C         139.4043  139.7715  167.0267 C.3     1  UNL1        0.1582
     10 C         138.9623  139.2155  165.7054 C.3     1  UNL1        0.2351
     11 O         137.7760  138.3302  165.9485 O.2     1  UNL1       -0.4478
     12 C         137.4847  138.3391  167.4199 C.2     1  UNL1        0.2770
     13 N         136.3809  137.5890  168.1047 N.pl3   1  UNL1       -0.3133
     14 N         138.4910  139.2299  168.0863 N.2     1  UNL1       -0.2202
     15 C         139.7283  140.2460  168.4122 C.3     1  UNL1        0.1174
     16 C         139.9595  140.3741  168.0877 C.3     1  UNL1        0.1502
     17 O         139.7165  140.2394  168.4288 O.3     1  UNL1       -0.3532
     18 C         139.9595  140.3741  168.0877 C.3     1  UNL1        0.1502
     19 H         135.7675  137.0269  167.5784 H       1  UNL1        0.1466
     20 H         136.2699  137.6589  169.0804 H       1  UNL1        0.1466
     21 C         140.4133  139.7407  161.9295 C.ar    1  UNL1        0.0384
     22 C         141.0076  140.4358  160.7405 C.ar    1  UNL1        0.1022
     23 N         140.6835  139.9613  159.3549 N.ar    1  UNL1       -0.2224
     24 C         139.7651  138.7917  159.1583 C.ar    1  UNL1        0.1989
     25 N         139.1708  138.0967  160.3472 N.ar    1  UNL1       -0.2224
     26 C         139.4949  138.5711  161.7329 C.ar    1  UNL1        0.1022
     27 C         141.2052  141.6542  170.0203 C.3     1  UNL1        0.0438
     28 C         140.4142  144.1274  169.9335 C.3     1  UNL1        0.0001
     29 C         141.4628  143.1100  170.2734 C.3     1  UNL1        0.0037
@<TRIPOS>BOND
     1    28    29    1
     2    29    27    1
     3    27     1    1
     4     1     2    1
     5     2     3    1
     6     3     4   ar
     7     4     5   ar
     8     5     6   ar
     9     6    21    1
    10    21    22   ar
    11    22    23   ar
    12    23    24   ar
    13    24    25   ar
    14    25    26   ar
    15     6     7   ar
    16     7     8   ar
    17     8     9    1
    18     9    10    1
    19    10    11    1
    20    11    12    1
    21    12    13    1
    22    12    14    2
    23     9    15    1
    24    15    16    1
    25    16    17    1
    26    17    18    1
    27    15     1    1
    28     8     3   ar
    29    14     9    1
    30    18    15    1
    31    26    21   ar
    32    13    19    1
    33    13    20    1
@<TRIPOS>MOLECULE
*****
 29 33 0 0 0
SMALL
GASTEIGER

@<TRIPOS>ATOM
      1 C         138.2345  140.8882  162.4693 C.3     1  UNL1        0.1726
      2 O         138.5194  140.0293  163.6655 O.3     1  UNL1       -0.4792
      3 C         139.2668  140.5969  164.8356 C.ar    1  UNL1        0.1362
      4 C         139.5516  139.7380  166.0319 C.ar    1  UNL1        0.0366
      5 C         140.2990  140.3057  167.2020 C.ar    1  UNL1        0.0032
      6 C         140.7615  141.7324  167.1759 C.ar    1  UNL1        0.0029
      7 C         140.4766  142.5914  165.9796 C.ar    1  UNL1        0.0007
      8 C         139.7292  142.0236  164.8095 C.ar    1  UNL1        0.0357
      9 C         139.4443  142.8826  163.6132 C.3     1  UNL1        0.1582
     10 C         140.1983  143.5852  164.7032 C.3     1  UNL1        0.2351
     11 O         140.4540  144.9941  164.2561 O.2     1  UNL1       -0.4478
     12 C         139.8581  145.1622  162.8899 C.2     1  UNL1        0.2770
     13 N         139.8819  146.4152  162.0657 N.pl3   1  UNL1       -0.3133
     14 N         139.2340  143.8572  162.4926 N.2     1  UNL1       -0.2202
     15 C         138.6970  142.3149  162.4431 C.3     1  UNL1        0.1174
     16 C         138.7765  142.0752  162.7769 C.3     1  UNL1        0.1502
     17 O         138.6929  142.3271  162.4261 O.3     1  UNL1       -0.3532
     18 C         138.7765  142.0752  162.7769 C.3     1  UNL1        0.1502
     19 H         140.3183  147.2258  162.4148 H       1  UNL1        0.1466
     20 H         139.4612  146.4271  161.1757 H       1  UNL1        0.1466
     21 C         141.5088  142.3001  168.3460 C.ar    1  UNL1        0.0384
     22 C         140.7816  143.1069  169.3805 C.ar    1  UNL1        0.1022
     23 N         141.5289  143.6746  170.5506 N.ar    1  UNL1       -0.2224
     24 C         143.0035  143.4355  170.6862 C.ar    1  UNL1        0.1989
     25 N         143.7308  142.6288  169.6518 N.ar    1  UNL1       -0.2224
     26 C         142.9834  142.0610  168.4816 C.ar    1  UNL1        0.1022
     27 C         137.4872  140.3205  161.2992 C.3     1  UNL1        0.0438
     28 C         139.4687  138.8280  160.5269 C.3     1  UNL1        0.0001
     29 C         138.2313  139.6128  160.2058 C.3     1  UNL1        0.0037
@<TRIPOS>BOND
     1    28    29    1
     2    29    27    1
     3    27     1    1
     4     1     2    1
     5     2     3    1
     6     3     4   ar
     7     4     5   ar
     8     5     6   ar
     9     6    21    1
    10    21    22   ar
    11    22    23   ar
    12    23    24   ar
    13    24    25   ar
    14    25    26   ar
    15     6     7   ar
    16     7     8   ar
    17     8     9    1
    18     9    10    1
    19    10    11    1
    20    11    12    1
    21    12    13    1
    22    12    14    2
    23     9    15    1
    24    15    16    1
    25    16    17    1
    26    17    18    1
    27    15     1    1
    28     8     3   ar
    29    14     9    1
    30    18    15    1
    31    26    21   ar
    32    13    19    1
    33    13    20    1
@<TRIPOS>MOLECULE
*****
 29 33 0 0 0
SMALL
GASTEIGER

@<TRIPOS>ATOM
      1 C         143.9596  139.6063  162.2438 C.3     1  UNL1        0.1726
      2 O         143.7023  138.7109  163.4193 O.3     1  UNL1       -0.4792
      3 C         143.3795  139.3050  164.7582 C.ar    1  UNL1        0.1362
      4 C         143.1222  138.4095  165.9338 C.ar    1  UNL1        0.0366
      5 C         142.7994  139.0037  167.2727 C.ar    1  UNL1        0.0032
      6 C         142.7339  140.4933  167.4361 C.ar    1  UNL1        0.0029
      7 C         142.9912  141.3888  166.2606 C.ar    1  UNL1        0.0007
      8 C         143.3140  140.7946  164.9216 C.ar    1  UNL1        0.0357
      9 C         143.5712  141.6901  163.7460 C.3     1  UNL1        0.1582
     10 C         143.2618  142.4250  165.0166 C.3     1  UNL1        0.2351
     11 O         143.3030  143.8955  164.7233 O.2     1  UNL1       -0.4478
     12 C         143.6379  144.0695  163.2716 C.2     1  UNL1        0.2770
     13 N         143.7817  145.3769  162.5505 N.pl3   1  UNL1       -0.3133
     14 N         143.8037  142.7064  162.6676 N.2     1  UNL1       -0.2202
     15 C         143.8940  141.0960  162.4071 C.3     1  UNL1        0.1174
     16 C         143.8223  140.8461  162.7351 C.3     1  UNL1        0.1502
     17 O         143.8977  141.1087  162.3903 O.3     1  UNL1       -0.3532
     18 C         143.8223  140.8461  162.7351 C.3     1  UNL1        0.1502
     19 H         143.6530  146.2236  163.0360 H       1  UNL1        0.1466
     20 H         144.0048  145.3882  161.5917 H       1  UNL1        0.1466
     21 C         142.4111  141.0875  168.7751 C.ar    1  UNL1        0.0384
     22 C         142.1583  142.5607  168.9006 C.ar    1  UNL1        0.1022
     23 N         141.8355  143.1549  170.2396 N.ar    1  UNL1       -0.2224
     24 C         141.7655  142.2758  171.4530 C.ar    1  UNL1        0.1989
     25 N         142.0183  140.8026  171.3275 N.ar    1  UNL1       -0.2224
     26 C         142.3411  140.2084  169.9885 C.ar    1  UNL1        0.1022
     27 C         144.2824  139.0121  160.9048 C.3     1  UNL1        0.0438
     28 C         141.7761  138.4192  160.5622 C.3     1  UNL1        0.0001
     29 C         143.1862  138.4469  160.0511 C.3     1  UNL1        0.0037
@<TRIPOS>BOND
     1    28    29    1
     2    29    27    1
     3    27     1    1
     4     1     2    1
     5     2     3    1
     6     3     4   ar
     7     4     5   ar
     8     5     6   ar
     9     6    21    1
    10    21    22   ar
    11    22    23   ar
    12    23    24   ar
    13    24    25   ar
    14    25    26   ar
    15     6     7   ar
    16     7     8   ar
    17     8     9    1
    18     9    10    1
    19    10    11    1
    20    11    12    1
    21    12    13    1
    22    12    14    2
    23     9    15    1
    24    15    16    1
    25    16    17    1
    26    17    18    1
    27    15     1    1
    28     8     3   ar
    29    14     9    1
    30    18    15    1
    31    26    21   ar
    32    13    19    1
    33    13    20    1
@<TRIPOS>MOLECULE
*****
 29 33 0 0 0
SMALL
GASTEIGER

@<TRIPOS>ATOM
      1 C         141.7190  138.2751  162.6055 C.3     1  UNL1        0.1726
      2 O         142.6800  138.1023  163.7442 O.3     1  UNL1       -0.4792
      3 C         142.3846  138.7259  165.0761 C.ar    1  UNL1        0.1362
      4 C         143.3456  138.5531  166.2148 C.ar    1  UNL1        0.0366
      5 C         143.0502  139.1766  167.5466 C.ar    1  UNL1        0.0032
      6 C         141.7938  139.9730  167.7398 C.ar    1  UNL1        0.0029
      7 C         140.8328  140.1458  166.6011 C.ar    1  UNL1        0.0007
      8 C         141.1282  139.5222  165.2692 C.ar    1  UNL1        0.0357
      9 C         140.1673  139.6950  164.1305 C.3     1  UNL1        0.1582
     10 C         139.7396  140.3737  165.3981 C.3     1  UNL1        0.2351
     11 O         138.4259  141.0507  165.1409 O.2     1  UNL1       -0.4478
     12 C         138.0417  140.7904  163.7146 C.2     1  UNL1        0.2770
     13 N         136.7994  141.2817  163.0324 N.pl3   1  UNL1       -0.3133
     14 N         139.1179  139.9525  163.0900 N.2     1  UNL1       -0.2202
     15 C         140.4626  139.0715  162.7986 C.3     1  UNL1        0.1174
     16 C         140.7308  139.0233  163.1163 C.3     1  UNL1        0.1502
     17 O         140.4489  139.0739  162.7824 O.3     1  UNL1       -0.3532
     18 C         140.7308  139.0233  163.1163 C.3     1  UNL1        0.1502
     19 H         136.1486  141.8286  163.5290 H       1  UNL1        0.1466
     20 H         136.6347  141.0572  162.0881 H       1  UNL1        0.1466
     21 C         141.4984  140.5966  169.0717 C.ar    1  UNL1        0.0384
     22 C         140.5503  139.9250  170.0205 C.ar    1  UNL1        0.1022
     23 N         140.2549  140.5486  171.3524 N.ar    1  UNL1       -0.2224
     24 C         140.9076  141.8437  171.7355 C.ar    1  UNL1        0.1989
     25 N         141.8557  142.5152  170.7868 N.ar    1  UNL1       -0.2224
     26 C         142.1511  141.8916  169.4548 C.ar    1  UNL1        0.1022
     27 C         142.0145  137.6515  161.2736 C.3     1  UNL1        0.0438
     28 C         144.0598  139.1307  160.6583 C.3     1  UNL1        0.0001
     29 C         143.3775  137.7949  160.6641 C.3     1  UNL1        0.0037
@<TRIPOS>BOND
     1    28    29    1
     2    29    27    1
     3    27     1    1
     4     1     2    1
     5     2     3    1
     6     3     4   ar
     7     4     5   ar
     8     5     6   ar
     9     6    21    1
    10    21    22   ar
    11    22    23   ar
    12    23    24   ar
    13    24    25   ar
    14    25    26   ar
    15     6     7   ar
    16     7     8   ar
    17     8     9    1
    18     9    10    1
    19    10    11    1
    20    11    12    1
    21    12    13    1
    22    12    14    2
    23     9    15    1
    24    15    16    1
    25    16    17    1
    26    17    18    1
    27    15     1    1
    28     8     3   ar
    29    14     9    1
    30    18    15    1
    31    26    21   ar
    32    13    19    1
    33    13    20    1
@<TRIPOS>MOLECULE
*****
 29 33 0 0 0
SMALL
GASTEIGER

@<TRIPOS>ATOM
      1 C         139.6177  138.5392  162.3509 C.3     1  UNL1        0.1726
      2 O         138.6757  138.5024  163.5177 O.3     1  UNL1       -0.4792
      3 C         139.1374  138.9611  164.8691 C.ar    1  UNL1        0.1362
      4 C         138.1954  138.9242  166.0359 C.ar    1  UNL1        0.0366
      5 C         138.6571  139.3829  167.3873 C.ar    1  UNL1        0.0032
      6 C         140.0608  139.8784  167.5721 C.ar    1  UNL1        0.0029
      7 C         141.0028  139.9152  166.4053 C.ar    1  UNL1        0.0007
      8 C         140.5411  139.4565  165.0538 C.ar    1  UNL1        0.0357
      9 C         141.4831  139.4933  163.8871 C.3     1  UNL1        0.1582
     10 C         142.0839  139.9816  165.1719 C.3     1  UNL1        0.2351
     11 O         143.5046  140.3776  164.8983 O.2     1  UNL1       -0.4478
     12 C         143.7819  140.1340  163.4444 C.2     1  UNL1        0.2770
     13 N         145.0805  140.3917  162.7393 N.pl3   1  UNL1       -0.3133
     14 N         142.5325  139.5875  162.8194 N.2     1  UNL1       -0.2202
     15 C         141.0214  139.0347  162.5356 C.3     1  UNL1        0.1174
     16 C         140.7586  139.0244  162.8612 C.3     1  UNL1        0.1502
     17 O         141.0348  139.0352  162.5190 O.3     1  UNL1       -0.3532
     18 C         140.7586  139.0244  162.8612 C.3     1  UNL1        0.1502
     19 H         145.8481  140.7538  163.2382 H       1  UNL1        0.1466
     20 H         145.1652  140.1987  161.7776 H       1  UNL1        0.1466
     21 C         140.5225  140.3370  168.9235 C.ar    1  UNL1        0.0384
     22 C         141.8914  139.9681  169.4135 C.ar    1  UNL1        0.1022
     23 N         142.3531  140.4267  170.7650 N.ar    1  UNL1       -0.2224
     24 C         141.4460  141.2542  171.6265 C.ar    1  UNL1        0.1989
     25 N         140.0771  141.6232  171.1366 N.ar    1  UNL1       -0.2224
     26 C         139.6154  141.1645  169.7850 C.ar    1  UNL1        0.1022
     27 C         139.1560  138.0806  160.9994 C.3     1  UNL1        0.0438
     28 C         137.7068  140.1487  160.3886 C.3     1  UNL1        0.0001
     29 C         138.6834  139.0827  159.9884 C.3     1  UNL1        0.0037
@<TRIPOS>BOND
     1    28    29    1
     2    29    27    1
     3    27     1    1
     4     1     2    1
     5     2     3    1
     6     3     4   ar
     7     4     5   ar
     8     5     6   ar
     9     6    21    1
    10    21    22   ar
    11    22    23   ar
    12    23    24   ar
    13    24    25   ar
    14    25    26   ar
    15     6     7   ar
    16     7     8   ar
    17     8     9    1
    18     9    10    1
    19    10    11    1
    20    11    12    1
    21    12    13    1
    22    12    14    2
    23     9    15    1
    24    15    16    1
    25    16    17    1
    26    17    18    1
    27    15     1    1
    28     8     3   ar
    29    14     9    1
    30    18    15    1
    31    26    21   ar
    32    13    19    1
    33    13    20    1
@<TRIPOS>MOLECULE
*****
 29 33 0 0 0
SMALL
GASTEIGER

@<TRIPOS>ATOM
      1 C         143.9192  142.3666  169.5731 C.3     1  UNL1        0.1726
      2 O         144.0184  142.7898  168.1375 O.3     1  UNL1       -0.4792
      3 C         142.9657  142.3668  167.1564 C.ar    1  UNL1        0.1362
      4 C         143.0650  142.7900  165.7207 C.ar    1  UNL1        0.0366
      5 C         142.0122  142.3670  164.7396 C.ar    1  UNL1        0.0032
      6 C         140.8602  141.5206  165.1940 C.ar    1  UNL1        0.0029
      7 C         140.7609  141.0973  166.6296 C.ar    1  UNL1        0.0007
      8 C         141.8137  141.5204  167.6108 C.ar    1  UNL1        0.0357
      9 C         141.7144  141.0972  169.0464 C.3     1  UNL1        0.1582
     10 C         140.5919  140.5998  168.1847 C.3     1  UNL1        0.2351
     11 O         139.6663  139.7948  169.0482 O.2     1  UNL1       -0.4478
     12 C         140.2168  139.7947  170.4435 C.2     1  UNL1        0.2770
     13 N         139.6084  139.1099  171.6313 N.pl3   1  UNL1       -0.3133
     14 N         141.4826  140.5996  170.4424 N.2     1  UNL1       -0.2202
     15 C         142.7672  141.5202  170.0276 C.3     1  UNL1        0.1174
     16 C         142.7949  141.6383  169.6271 C.3     1  UNL1        0.1502
     17 O         142.7658  141.5142  170.0481 O.3     1  UNL1       -0.3532
     18 C         142.7949  141.6383  169.6271 C.3     1  UNL1        0.1502
     19 H         138.7707  138.6025  171.5312 H       1  UNL1        0.1466
     20 H         140.0467  139.1679  172.5109 H       1  UNL1        0.1466
     21 C         139.8074  141.0975  164.2129 C.ar    1  UNL1        0.0384
     22 C         138.4521  141.7397  164.2435 C.ar    1  UNL1        0.1022
     23 N         137.3994  141.3166  163.2624 N.ar    1  UNL1       -0.2224
     24 C         137.7019  140.2514  162.2505 C.ar    1  UNL1        0.1989
     25 N         139.0571  139.6093  162.2198 N.ar    1  UNL1       -0.2224
     26 C         140.1099  140.0323  163.2010 C.ar    1  UNL1        0.1022
     27 C         144.9720  142.7897  170.5543 C.3     1  UNL1        0.0438
     28 C         146.9511  144.3644  171.1486 C.3     1  UNL1        0.0001
     29 C         145.7157  144.0759  170.3483 C.3     1  UNL1        0.0037
@<TRIPOS>BOND
     1    28    29    1
     2    29    27    1
     3    27     1    1
     4     1     2    1
     5     2     3    1
     6     3     4   ar
     7     4     5   ar
     8     5     6   ar
     9     6    21    1
    10    21    22   ar
    11    22    23   ar
    12    23    24   ar
    13    24    25   ar
    14    25    26   ar
    15     6     7   ar
    16     7     8   ar
    17     8     9    1
    18     9    10    1
    19    10    11    1
    20    11    12    1
    21    12    13    1
    22    12    14    2
    23     9    15    1
    24    15    16    1
    25    16    17    1
    26    17    18    1
    27    15     1    1
    28     8     3   ar
    29    14     9    1
    30    18    15    1
    31    26    21   ar
    32    13    19    1
    33    13    20    1
