@<TRIPOS>MOLECULE
*****
 25 27 0 0 0
SMALL
GASTEIGER

@<TRIPOS>ATOM
      1 C         142.4049  141.6923  167.7302 C.ar    1  UNL1        0.1795
      2 C         143.2329  142.2411  168.8542 C.ar    1  UNL1        0.0407
      3 C         142.5800  143.0271  169.9523 C.ar    1  UNL1        0.0033
      4 C         141.0991  143.2644  169.9264 C.ar    1  UNL1        0.0033
      5 C         140.2711  142.7157  168.8025 C.ar    1  UNL1        0.0407
      6 C         140.9240  141.9296  167.7043 C.ar    1  UNL1        0.1795
      7 O         143.0577  140.9062  166.6321 O.3     1  UNL1       -0.4506
      8 C         144.3651  140.8467  164.3877 C.ar    1  UNL1        0.0473
      9 C         144.8963  141.5512  163.1747 C.ar    1  UNL1        0.0985
     10 N         144.6514  143.0199  162.9931 N.ar    1  UNL1       -0.2482
     11 C         143.8753  143.7840  164.0245 C.ar    1  UNL1        0.0624
     12 C         143.6304  145.2527  163.8429 C.3     1  UNL1        0.0522
     13 C         143.3441  143.0795  165.2374 C.ar    1  UNL1        0.0519
     14 C         143.5890  141.6108  165.4191 C.ar    1  UNL1        0.1454
     15 C         144.6100  139.3780  164.5693 C.3     1  UNL1        0.1003
     16 C         142.2790  138.2416  164.4111 C.3     1  UNL1        0.0861
     17 N         143.5452  138.5087  165.1697 N.3     1  UNL1       -0.2925
     18 H         143.9747  137.6021  165.3543 H       1  UNL1        0.1236
     19 O         140.0960  141.3809  166.5804 O.3     1  UNL1       -0.4504
     20 C         139.4002  142.3155  165.6358 C.ar    1  UNL1        0.1454
     21 C         139.7832  143.7652  165.5971 C.ar    1  UNL1        0.0375
     22 C         139.0874  144.6998  164.6524 C.ar    1  UNL1        0.0031
     23 C         138.0087  144.1847  163.7464 C.ar    1  UNL1        0.0002
     24 C         137.6256  142.7348  163.7850 C.ar    1  UNL1        0.0031
     25 C         138.3214  141.8002  164.7297 C.ar    1  UNL1        0.0375
@<TRIPOS>BOND
     1    16    17    1
     2    17    15    1
     3    15     8    1
     4     8     9   ar
     5     9    10   ar
     6    10    11   ar
     7    11    12    1
     8    11    13   ar
     9    13    14   ar
    10    14     7    1
    11     7     1    1
    12     1     2   ar
    13     2     3   ar
    14     3     4   ar
    15     4     5   ar
    16     5     6   ar
    17     6    19    1
    18    19    20    1
    19    20    21   ar
    20    21    22   ar
    21    22    23   ar
    22    23    24   ar
    23    24    25   ar
    24    14     8   ar
    25     6     1   ar
    26    25    20   ar
    27    17    18    1
@<TRIPOS>MOLECULE
*****
 25 27 0 0 0
SMALL
GASTEIGER

@<TRIPOS>ATOM
      1 C         139.7556  140.7129  164.4478 C.ar    1  UNL1        0.1795
      2 C         139.4242  139.3597  163.8918 C.ar    1  UNL1        0.0407
      3 C         138.8567  138.2991  164.7880 C.ar    1  UNL1        0.0033
      4 C         138.6205  138.5916  166.2401 C.ar    1  UNL1        0.0033
      5 C         138.9519  139.9448  166.7961 C.ar    1  UNL1        0.0407
      6 C         139.5194  141.0054  165.8999 C.ar    1  UNL1        0.1795
      7 O         140.3231  141.7735  163.5517 O.3     1  UNL1       -0.4506
      8 C         142.0248  143.7095  163.8774 C.ar    1  UNL1        0.0473
      9 C         143.4358  144.1797  164.0721 C.ar    1  UNL1        0.0985
     10 N         144.5560  143.1842  164.1360 N.ar    1  UNL1       -0.2482
     11 C         144.2653  141.7185  164.0051 C.ar    1  UNL1        0.0624
     12 C         145.3856  140.7231  164.0689 C.3     1  UNL1        0.0522
     13 C         142.8544  141.2483  163.8103 C.ar    1  UNL1        0.0519
     14 C         141.7341  142.2438  163.7465 C.ar    1  UNL1        0.1454
     15 C         140.9045  144.7049  163.8135 C.3     1  UNL1        0.1003
     16 C         138.3346  144.4998  164.1347 C.3     1  UNL1        0.0861
     17 N         139.7161  144.5555  164.7164 N.3     1  UNL1       -0.2925
     18 H         139.8505  143.6901  165.2393 H       1  UNL1        0.1236
     19 O         139.8508  142.3586  166.4559 O.3     1  UNL1       -0.4504
     20 C         140.8416  142.4876  167.5747 C.ar    1  UNL1        0.1454
     21 C         142.2440  141.9865  167.3961 C.ar    1  UNL1        0.0375
     22 C         143.2348  142.1156  168.5148 C.ar    1  UNL1        0.0031
     23 C         142.8232  142.7458  169.8123 C.ar    1  UNL1        0.0002
     24 C         141.4206  143.2469  169.9910 C.ar    1  UNL1        0.0031
     25 C         140.4298  143.1179  168.8722 C.ar    1  UNL1        0.0375
@<TRIPOS>BOND
     1    16    17    1
     2    17    15    1
     3    15     8    1
     4     8     9   ar
     5     9    10   ar
     6    10    11   ar
     7    11    12    1
     8    11    13   ar
     9    13    14   ar
    10    14     7    1
    11     7     1    1
    12     1     2   ar
    13     2     3   ar
    14     3     4   ar
    15     4     5   ar
    16     5     6   ar
    17     6    19    1
    18    19    20    1
    19    20    21   ar
    20    21    22   ar
    21    22    23   ar
    22    23    24   ar
    23    24    25   ar
    24    14     8   ar
    25     6     1   ar
    26    25    20   ar
    27    17    18    1
@<TRIPOS>MOLECULE
*****
 25 27 0 0 0
SMALL
GASTEIGER

@<TRIPOS>ATOM
      1 C         140.7200  142.2124  167.8202 C.ar    1  UNL1        0.1795
      2 C         140.3847  143.1935  168.9043 C.ar    1  UNL1        0.0407
      3 C         141.3816  143.4851  169.9864 C.ar    1  UNL1        0.0033
      4 C         142.7137  142.7956  169.9847 C.ar    1  UNL1        0.0033
      5 C         143.0490  141.8145  168.9008 C.ar    1  UNL1        0.0407
      6 C         142.0521  141.5228  167.8185 C.ar    1  UNL1        0.1795
      7 O         139.7231  141.9208  166.7380 O.3     1  UNL1       -0.4506
      8 C         139.7368  141.3405  164.2056 C.ar    1  UNL1        0.0473
      9 C         140.0366  141.7237  162.7867 C.ar    1  UNL1        0.0985
     10 N         140.6225  143.0704  162.4813 N.ar    1  UNL1       -0.2482
     11 C         140.9086  144.0338  163.5948 C.ar    1  UNL1        0.0624
     12 C         141.4944  145.3805  163.2894 C.3     1  UNL1        0.0522
     13 C         140.6088  143.6506  165.0136 C.ar    1  UNL1        0.0519
     14 C         140.0229  142.3040  165.3191 C.ar    1  UNL1        0.1454
     15 C         139.1510  139.9939  164.5110 C.3     1  UNL1        0.1003
     16 C         137.9459  138.8438  166.5047 C.3     1  UNL1        0.0861
     17 N         137.9643  139.8812  165.4215 N.3     1  UNL1       -0.2925
     18 H         137.8572  140.7865  165.8791 H       1  UNL1        0.1236
     19 O         142.3873  140.5417  166.7345 O.3     1  UNL1       -0.4504
     20 C         143.4208  140.8871  165.7037 C.ar    1  UNL1        0.1454
     21 C         144.0694  139.8004  164.8985 C.ar    1  UNL1        0.0375
     22 C         145.1029  140.1458  163.8677 C.ar    1  UNL1        0.0031
     23 C         145.4877  141.5779  163.6419 C.ar    1  UNL1        0.0002
     24 C         144.8390  142.6647  164.4471 C.ar    1  UNL1        0.0031
     25 C         143.8056  142.3193  165.4779 C.ar    1  UNL1        0.0375
@<TRIPOS>BOND
     1    16    17    1
     2    17    15    1
     3    15     8    1
     4     8     9   ar
     5     9    10   ar
     6    10    11   ar
     7    11    12    1
     8    11    13   ar
     9    13    14   ar
    10    14     7    1
    11     7     1    1
    12     1     2   ar
    13     2     3   ar
    14     3     4   ar
    15     4     5   ar
    16     5     6   ar
    17     6    19    1
    18    19    20    1
    19    20    21   ar
    20    21    22   ar
    21    22    23   ar
    22    23    24   ar
    23    24    25   ar
    24    14     8   ar
    25     6     1   ar
    26    25    20   ar
    27    17    18    1
@<TRIPOS>MOLECULE
*****
 25 27 0 0 0
SMALL
GASTEIGER

@<TRIPOS>ATOM
      1 C         140.3524  142.9186  164.6370 C.ar    1  UNL1        0.1795
      2 C         139.9575  144.3626  164.7317 C.ar    1  UNL1        0.0407
      3 C         138.6916  144.8381  164.0825 C.ar    1  UNL1        0.0033
      4 C         137.8206  143.8696  163.3386 C.ar    1  UNL1        0.0033
      5 C         138.2155  142.4256  163.2439 C.ar    1  UNL1        0.0407
      6 C         139.4814  141.9501  163.8931 C.ar    1  UNL1        0.1795
      7 O         141.6183  142.4432  165.2862 O.3     1  UNL1       -0.4506
      8 C         142.3661  140.4378  166.7591 C.ar    1  UNL1        0.0473
      9 C         142.3073  139.6847  168.0550 C.ar    1  UNL1        0.0985
     10 N         141.4419  140.1838  169.1739 N.ar    1  UNL1       -0.2482
     11 C         140.6354  141.4360  168.9970 C.ar    1  UNL1        0.0624
     12 C         139.7700  141.9352  170.1159 C.3     1  UNL1        0.0522
     13 C         140.6942  142.1891  167.7011 C.ar    1  UNL1        0.0519
     14 C         141.5595  141.6900  166.5821 C.ar    1  UNL1        0.1454
     15 C         143.2314  139.9386  165.6401 C.3     1  UNL1        0.1003
     16 C         143.1179  138.7343  163.3409 C.3     1  UNL1        0.0861
     17 N         142.6783  139.8442  164.2491 N.3     1  UNL1       -0.2925
     18 H         141.6653  139.7669  164.3396 H       1  UNL1        0.1236
     19 O         139.8763  140.5061  163.7984 O.3     1  UNL1       -0.4504
     20 C         139.2258  139.4906  164.6904 C.ar    1  UNL1        0.1454
     21 C         138.4745  139.9354  165.9101 C.ar    1  UNL1        0.0375
     22 C         137.8240  138.9199  166.8021 C.ar    1  UNL1        0.0031
     23 C         137.9247  137.4596  166.4743 C.ar    1  UNL1        0.0002
     24 C         138.6760  137.0148  165.2545 C.ar    1  UNL1        0.0031
     25 C         139.3265  138.0303  164.3625 C.ar    1  UNL1        0.0375
@<TRIPOS>BOND
     1    16    17    1
     2    17    15    1
     3    15     8    1
     4     8     9   ar
     5     9    10   ar
     6    10    11   ar
     7    11    12    1
     8    11    13   ar
     9    13    14   ar
    10    14     7    1
    11     7     1    1
    12     1     2   ar
    13     2     3   ar
    14     3     4   ar
    15     4     5   ar
    16     5     6   ar
    17     6    19    1
    18    19    20    1
    19    20    21   ar
    20    21    22   ar
    21    22    23   ar
    22    23    24   ar
    23    24    25   ar
    24    14     8   ar
    25     6     1   ar
    26    25    20   ar
    27    17    18    1
@<TRIPOS>MOLECULE
*****
 25 27 0 0 0
SMALL
GASTEIGER

@<TRIPOS>ATOM
      1 C         141.7858  139.5583  166.8030 C.ar    1  UNL1        0.1795
      2 C         142.7089  139.3830  167.9723 C.ar    1  UNL1        0.0407
      3 C         142.1949  139.5723  169.3686 C.ar    1  UNL1        0.0033
      4 C         140.7577  139.9368  169.5958 C.ar    1  UNL1        0.0033
      5 C         139.8346  140.1122  168.4267 C.ar    1  UNL1        0.0407
      6 C         140.3486  139.9229  167.0302 C.ar    1  UNL1        0.1795
      7 O         142.2998  139.3691  165.4066 O.3     1  UNL1       -0.4506
      8 C         141.8853  140.5076  163.1083 C.ar    1  UNL1        0.0473
      9 C         142.0372  141.6903  162.1983 C.ar    1  UNL1        0.0985
     10 N         142.7554  142.9172  162.6766 N.ar    1  UNL1       -0.2482
     11 C         143.3218  142.9615  164.0648 C.ar    1  UNL1        0.0624
     12 C         144.0400  144.1884  164.5430 C.3     1  UNL1        0.0522
     13 C         143.1699  141.7788  164.9748 C.ar    1  UNL1        0.0519
     14 C         142.4517  140.5518  164.4965 C.ar    1  UNL1        0.1454
     15 C         141.1670  139.2806  162.6301 C.3     1  UNL1        0.1003
     16 C         138.9803  137.9278  163.0014 C.3     1  UNL1        0.0861
     17 N         140.2281  138.5556  163.5480 N.3     1  UNL1       -0.2925
     18 H         140.7651  137.8084  163.9883 H       1  UNL1        0.1236
     19 O         139.4255  140.0983  165.8610 O.3     1  UNL1       -0.4504
     20 C         139.0804  141.4758  165.3779 C.ar    1  UNL1        0.1454
     21 C         139.8097  142.6670  165.9246 C.ar    1  UNL1        0.0375
     22 C         139.4646  144.0444  165.4415 C.ar    1  UNL1        0.0031
     23 C         138.3902  144.2307  164.4115 C.ar    1  UNL1        0.0002
     24 C         137.6607  143.0395  163.8647 C.ar    1  UNL1        0.0031
     25 C         138.0058  141.6620  164.3479 C.ar    1  UNL1        0.0375
@<TRIPOS>BOND
     1    16    17    1
     2    17    15    1
     3    15     8    1
     4     8     9   ar
     5     9    10   ar
     6    10    11   ar
     7    11    12    1
     8    11    13   ar
     9    13    14   ar
    10    14     7    1
    11     7     1    1
    12     1     2   ar
    13     2     3   ar
    14     3     4   ar
    15     4     5   ar
    16     5     6   ar
    17     6    19    1
    18    19    20    1
    19    20    21   ar
    20    21    22   ar
    21    22    23   ar
    22    23    24   ar
    23    24    25   ar
    24    14     8   ar
    25     6     1   ar
    26    25    20   ar
    27    17    18    1
@<TRIPOS>MOLECULE
*****
 25 27 0 0 0
SMALL
GASTEIGER

@<TRIPOS>ATOM
      1 C         140.4968  139.7873  166.9157 C.ar    1  UNL1        0.1795
      2 C         139.6411  140.0461  168.1203 C.ar    1  UNL1        0.0407
      3 C         140.2484  140.0189  169.4915 C.ar    1  UNL1        0.0033
      4 C         141.7114  139.7329  169.6583 C.ar    1  UNL1        0.0033
      5 C         142.5671  139.4740  168.4538 C.ar    1  UNL1        0.0407
      6 C         141.9598  139.5012  167.0825 C.ar    1  UNL1        0.1795
      7 O         139.8894  139.8145  165.5445 O.3     1  UNL1       -0.4506
      8 C         140.5095  141.0721  163.3572 C.ar    1  UNL1        0.0473
      9 C         140.5391  142.3352  162.5488 C.ar    1  UNL1        0.0985
     10 N         139.9781  143.6040  163.1192 N.ar    1  UNL1       -0.2482
     11 C         139.3875  143.6097  164.4980 C.ar    1  UNL1        0.0624
     12 C         138.8266  144.8785  165.0685 C.3     1  UNL1        0.0522
     13 C         139.3580  142.3465  165.3064 C.ar    1  UNL1        0.0519
     14 C         139.9190  141.0777  164.7360 C.ar    1  UNL1        0.1454
     15 C         141.0705  139.8032  162.7867 C.3     1  UNL1        0.1003
     16 C         141.0249  137.2778  163.3950 C.3     1  UNL1        0.0861
     17 N         140.3146  138.5161  162.9342 N.3     1  UNL1       -0.2925
     18 H         139.5636  138.6905  163.6020 H       1  UNL1        0.1236
     19 O         142.8154  139.2424  165.8780 O.3     1  UNL1       -0.4504
     20 C         143.6389  140.3502  165.2909 C.ar    1  UNL1        0.1454
     21 C         144.7271  140.0357  164.3076 C.ar    1  UNL1        0.0375
     22 C         145.5506  141.1435  163.7206 C.ar    1  UNL1        0.0031
     23 C         145.2860  142.5658  164.1168 C.ar    1  UNL1        0.0002
     24 C         144.1977  142.8803  165.1002 C.ar    1  UNL1        0.0031
     25 C         143.3742  141.7725  165.6872 C.ar    1  UNL1        0.0375
@<TRIPOS>BOND
     1    16    17    1
     2    17    15    1
     3    15     8    1
     4     8     9   ar
     5     9    10   ar
     6    10    11   ar
     7    11    12    1
     8    11    13   ar
     9    13    14   ar
    10    14     7    1
    11     7     1    1
    12     1     2   ar
    13     2     3   ar
    14     3     4   ar
    15     4     5   ar
    16     5     6   ar
    17     6    19    1
    18    19    20    1
    19    20    21   ar
    20    21    22   ar
    21    22    23   ar
    22    23    24   ar
    23    24    25   ar
    24    14     8   ar
    25     6     1   ar
    26    25    20   ar
    27    17    18    1
@<TRIPOS>MOLECULE
*****
 25 27 0 0 0
SMALL
GASTEIGER

@<TRIPOS>ATOM
      1 C         140.3481  142.8646  163.6897 C.ar    1  UNL1        0.1795
      2 C         139.3932  143.1368  162.5653 C.ar    1  UNL1        0.0407
      3 C         138.1172  143.8802  162.8283 C.ar    1  UNL1        0.0033
      4 C         137.7961  144.3514  164.2157 C.ar    1  UNL1        0.0033
      5 C         138.7509  144.0792  165.3401 C.ar    1  UNL1        0.0407
      6 C         140.0269  143.3358  165.0771 C.ar    1  UNL1        0.1795
      7 O         141.6240  142.1212  163.4267 O.3     1  UNL1       -0.4506
      8 C         143.1721  140.5595  164.8105 C.ar    1  UNL1        0.0473
      9 C         143.4236  139.2411  165.4801 C.ar    1  UNL1        0.0985
     10 N         142.3787  138.1659  165.4357 N.ar    1  UNL1       -0.2482
     11 C         141.0822  138.4091  164.7216 C.ar    1  UNL1        0.0624
     12 C         140.0373  137.3338  164.6772 C.3     1  UNL1        0.0522
     13 C         140.8307  139.7275  164.0520 C.ar    1  UNL1        0.0519
     14 C         141.8756  140.8027  164.0964 C.ar    1  UNL1        0.1454
     15 C         144.2170  141.6348  164.8549 C.3     1  UNL1        0.1003
     16 C         144.1177  144.2177  164.5931 C.3     1  UNL1        0.0861
     17 N         143.8803  142.9851  165.4144 N.3     1  UNL1       -0.2925
     18 H         142.8862  142.9700  165.6422 H       1  UNL1        0.1236
     19 O         140.9817  143.0636  166.2014 O.3     1  UNL1       -0.4504
     20 C         140.5008  142.3734  167.4433 C.ar    1  UNL1        0.1454
     21 C         140.4922  143.1052  168.7526 C.ar    1  UNL1        0.0375
     22 C         140.0113  142.4149  169.9945 C.ar    1  UNL1        0.0031
     23 C         139.5389  140.9929  169.9271 C.ar    1  UNL1        0.0002
     24 C         139.5475  140.2610  168.6177 C.ar    1  UNL1        0.0031
     25 C         140.0284  140.9512  167.3758 C.ar    1  UNL1        0.0375
@<TRIPOS>BOND
     1    16    17    1
     2    17    15    1
     3    15     8    1
     4     8     9   ar
     5     9    10   ar
     6    10    11   ar
     7    11    12    1
     8    11    13   ar
     9    13    14   ar
    10    14     7    1
    11     7     1    1
    12     1     2   ar
    13     2     3   ar
    14     3     4   ar
    15     4     5   ar
    16     5     6   ar
    17     6    19    1
    18    19    20    1
    19    20    21   ar
    20    21    22   ar
    21    22    23   ar
    22    23    24   ar
    23    24    25   ar
    24    14     8   ar
    25     6     1   ar
    26    25    20   ar
    27    17    18    1
@<TRIPOS>MOLECULE
*****
 25 27 0 0 0
SMALL
GASTEIGER

@<TRIPOS>ATOM
      1 C         139.2823  142.5597  165.4757 C.ar    1  UNL1        0.1795
      2 C         139.5048  144.0165  165.1958 C.ar    1  UNL1        0.0407
      3 C         138.7569  144.6891  164.0831 C.ar    1  UNL1        0.0033
      4 C         137.7864  143.9051  163.2504 C.ar    1  UNL1        0.0033
      5 C         137.5639  142.4484  163.5303 C.ar    1  UNL1        0.0407
      6 C         138.3119  141.7756  164.6430 C.ar    1  UNL1        0.1795
      7 O         140.0303  141.8870  166.5884 O.3     1  UNL1       -0.4506
      8 C         141.7211  140.0497  167.3063 C.ar    1  UNL1        0.0473
      9 C         142.9031  139.1796  166.9968 C.ar    1  UNL1        0.0985
     10 N         143.5763  139.2767  165.6598 N.ar    1  UNL1       -0.2482
     11 C         143.0674  140.2439  164.6324 C.ar    1  UNL1        0.0624
     12 C         143.7406  140.3410  163.2955 C.3     1  UNL1        0.0522
     13 C         141.8855  141.1140  164.9419 C.ar    1  UNL1        0.0519
     14 C         141.2123  141.0169  166.2789 C.ar    1  UNL1        0.1454
     15 C         141.0479  139.9526  168.6432 C.3     1  UNL1        0.1003
     16 C         138.8299  140.3665  169.9313 C.3     1  UNL1        0.0861
     17 N         139.5539  139.8467  168.7248 N.3     1  UNL1       -0.2925
     18 H         139.1789  140.3463  167.9184 H       1  UNL1        0.1236
     19 O         138.0894  140.3189  164.9229 O.3     1  UNL1       -0.4504
     20 C         139.0188  139.2935  164.3443 C.ar    1  UNL1        0.1454
     21 C         139.4581  139.4014  162.9142 C.ar    1  UNL1        0.0375
     22 C         140.3875  138.3760  162.3357 C.ar    1  UNL1        0.0031
     23 C         140.8776  137.2427  163.1872 C.ar    1  UNL1        0.0002
     24 C         140.4383  137.1347  164.6175 C.ar    1  UNL1        0.0031
     25 C         139.5089  138.1601  165.1960 C.ar    1  UNL1        0.0375
@<TRIPOS>BOND
     1    16    17    1
     2    17    15    1
     3    15     8    1
     4     8     9   ar
     5     9    10   ar
     6    10    11   ar
     7    11    12    1
     8    11    13   ar
     9    13    14   ar
    10    14     7    1
    11     7     1    1
    12     1     2   ar
    13     2     3   ar
    14     3     4   ar
    15     4     5   ar
    16     5     6   ar
    17     6    19    1
    18    19    20    1
    19    20    21   ar
    20    21    22   ar
    21    22    23   ar
    22    23    24   ar
    23    24    25   ar
    24    14     8   ar
    25     6     1   ar
    26    25    20   ar
    27    17    18    1
@<TRIPOS>MOLECULE
*****
 25 27 0 0 0
SMALL
GASTEIGER

@<TRIPOS>ATOM
      1 C         140.0787  142.8807  163.2978 C.ar    1  UNL1        0.1795
      2 C         140.6419  144.1630  163.8350 C.ar    1  UNL1        0.0407
      3 C         139.7896  145.0589  164.6840 C.ar    1  UNL1        0.0033
      4 C         138.3742  144.6725  164.9960 C.ar    1  UNL1        0.0033
      5 C         137.8110  143.3902  164.4588 C.ar    1  UNL1        0.0407
      6 C         138.6633  142.4943  163.6097 C.ar    1  UNL1        0.1795
      7 O         140.9310  141.9848  162.4488 O.3     1  UNL1       -0.4506
      8 C         143.4735  141.4599  162.5507 C.ar    1  UNL1        0.0473
      9 C         144.6228  140.7164  163.1640 C.ar    1  UNL1        0.0985
     10 N         144.3791  139.7542  164.2887 N.ar    1  UNL1       -0.2482
     11 C         142.9860  139.5355  164.8000 C.ar    1  UNL1        0.0624
     12 C         142.7423  138.5734  165.9247 C.3     1  UNL1        0.0522
     13 C         141.8367  140.2791  164.1867 C.ar    1  UNL1        0.0519
     14 C         142.0804  141.2412  163.0621 C.ar    1  UNL1        0.1454
     15 C         143.7172  142.4221  161.4261 C.3     1  UNL1        0.1003
     16 C         144.0535  144.6012  162.8002 C.3     1  UNL1        0.0861
     17 N         143.4594  143.8865  161.6228 N.3     1  UNL1       -0.2925
     18 H         143.8018  144.3607  160.7871 H       1  UNL1        0.1236
     19 O         138.1002  141.2120  163.0726 O.3     1  UNL1       -0.4504
     20 C         138.3523  139.9215  163.7946 C.ar    1  UNL1        0.1454
     21 C         138.1683  139.8455  165.2813 C.ar    1  UNL1        0.0375
     22 C         138.4204  138.5551  166.0032 C.ar    1  UNL1        0.0031
     23 C         138.8564  137.3406  165.2384 C.ar    1  UNL1        0.0002
     24 C         139.0404  137.4166  163.7517 C.ar    1  UNL1        0.0031
     25 C         138.7883  138.7070  163.0297 C.ar    1  UNL1        0.0375
@<TRIPOS>BOND
     1    16    17    1
     2    17    15    1
     3    15     8    1
     4     8     9   ar
     5     9    10   ar
     6    10    11   ar
     7    11    12    1
     8    11    13   ar
     9    13    14   ar
    10    14     7    1
    11     7     1    1
    12     1     2   ar
    13     2     3   ar
    14     3     4   ar
    15     4     5   ar
    16     5     6   ar
    17     6    19    1
    18    19    20    1
    19    20    21   ar
    20    21    22   ar
    21    22    23   ar
    22    23    24   ar
    23    24    25   ar
    24    14     8   ar
    25     6     1   ar
    26    25    20   ar
    27    17    18    1
