@<TRIPOS>MOLECULE
*****
 36 39 0 0 0
SMALL
GASTEIGER

@<TRIPOS>ATOM
      1 C         138.7904  144.4171  162.6402 C.ar    1  UNL1        0.1521
      2 C         139.7928  145.4961  162.3553 C.ar    1  UNL1        0.0395
      3 C         140.6902  145.3890  161.1581 C.ar    1  UNL1        0.0179
      4 C         140.5852  144.2030  160.2458 C.ar    1  UNL1        0.0520
      5 C         139.5828  143.1240  160.5307 C.ar    1  UNL1        0.0324
      6 C         138.6854  143.2311  161.7279 C.ar    1  UNL1        0.0861
      7 N         141.4825  144.0958  159.0486 N.am    1  UNL1       -0.2804
      8 C         142.7683  143.3289  159.1414 C.2     1  UNL1        0.2494
      9 O         143.1567  142.6691  160.4313 O.2     1  UNL1       -0.2698
     10 H         141.2276  144.5288  158.2020 H       1  UNL1        0.1552
     11 C         143.6657  143.2217  157.9442 C.2     1  UNL1        0.0549
     12 C         144.7568  142.1928  157.9144 C.2     1  UNL1       -0.0041
     13 C         145.6542  142.0857  156.7172 C.3     1  UNL1        0.0991
     14 N         147.0990  142.4735  156.8260 N.3     1  UNL1       -0.2665
     15 C         147.5696  143.2945  157.9898 C.3     1  UNL1        0.0899
     16 C         148.0733  142.0405  155.7709 C.3     1  UNL1        0.0899
     17 C         138.4829  144.7337  165.2005 C.3     1  UNL1        0.2525
     18 O         137.8930  144.5243  163.8374 O.3     1  UNL1       -0.4702
     19 N         137.6831  142.1521  162.0128 N.pl3   1  UNL1       -0.2801
     20 H         136.7562  142.2447  161.6940 H       1  UNL1        0.1552
     21 C         138.0929  140.9321  162.7833 C.ar    1  UNL1        0.2208
     22 N         138.0766  139.5863  162.1210 N.ar    1  UNL1       -0.2111
     23 C         138.4864  138.3663  162.8915 C.ar    1  UNL1        0.1147
     24 C         138.9124  138.4921  164.3242 C.ar    1  UNL1        0.0946
     25 CL        139.3222  137.2721  165.0947 Cl      1  UNL1       -0.0790
     26 C         138.9287  139.8380  164.9865 C.ar    1  UNL1        0.0992
     27 N         138.5189  141.0579  164.2160 N.ar    1  UNL1       -0.2126
     28 C         139.3547  139.9638  166.4192 C.ar    1  UNL1        0.0572
     29 C         138.6192  139.4213  167.6086 C.ar    1  UNL1        0.1235
     30 N         139.4011  139.7764  168.8385 N.ar    1  UNL1       -0.1634
     31 N         140.6197  140.5384  168.4092 N.ar    1  UNL1       -0.2281
     32 C         141.7518  141.1417  169.1867 C.ar    1  UNL1        0.1004
     33 C         142.8552  141.8608  168.4689 C.ar    1  UNL1        0.0207
     34 C         142.8265  141.9766  166.9736 C.ar    1  UNL1        0.0031
     35 C         141.6945  141.3733  166.1962 C.ar    1  UNL1        0.0193
     36 C         140.5911  140.6542  166.9140 C.ar    1  UNL1        0.0858
@<TRIPOS>BOND
     1    17    18    1
     2    18     1    1
     3     1     2   ar
     4     2     3   ar
     5     3     4   ar
     6     4     7    1
     7     7     8   am
     8     8     9    2
     9     8    11    1
    10    11    12    2
    11    12    13    1
    12    13    14    1
    13    14    15    1
    14    14    16    1
    15     4     5   ar
    16     5     6   ar
    17     6    19    1
    18    19    21    1
    19    21    22   ar
    20    22    23   ar
    21    23    24   ar
    22    24    25    1
    23    24    26   ar
    24    26    28    1
    25    28    29   ar
    26    29    30   ar
    27    30    31   ar
    28    31    32   ar
    29    32    33   ar
    30    33    34   ar
    31    34    35   ar
    32    35    36   ar
    33    26    27   ar
    34     6     1   ar
    35    27    21   ar
    36    36    28   ar
    37    36    31   ar
    38     7    10    1
    39    19    20    1
@<TRIPOS>MOLECULE
*****
 36 39 0 0 0
SMALL
GASTEIGER

@<TRIPOS>ATOM
      1 C         139.7161  138.8460  165.5312 C.ar    1  UNL1        0.1521
      2 C         139.2357  137.6984  164.6931 C.ar    1  UNL1        0.0395
      3 C         140.0434  137.2404  163.5150 C.ar    1  UNL1        0.0179
      4 C         141.3313  137.9299  163.1749 C.ar    1  UNL1        0.0520
      5 C         141.8117  139.0775  164.0130 C.ar    1  UNL1        0.0324
      6 C         141.0041  139.5356  165.1912 C.ar    1  UNL1        0.0861
      7 N         142.1390  137.4719  161.9968 N.am    1  UNL1       -0.2804
      8 C         141.9097  138.0842  160.6468 C.2     1  UNL1        0.2494
      9 O         140.8729  139.1545  160.4749 O.2     1  UNL1       -0.2698
     10 H         142.8195  136.7695  162.1096 H       1  UNL1        0.1552
     11 C         142.7173  137.6263  159.4686 C.2     1  UNL1        0.0549
     12 C         142.2364  137.9054  158.0755 C.2     1  UNL1       -0.0041
     13 C         143.0440  137.4474  156.8974 C.3     1  UNL1        0.0991
     14 N         142.7581  136.1186  156.2631 N.3     1  UNL1       -0.2665
     15 C         141.4423  135.8794  155.5836 C.3     1  UNL1        0.0899
     16 C         143.7878  135.0288  156.3084 C.3     1  UNL1        0.0899
     17 C         137.6429  138.5869  167.0755 C.3     1  UNL1        0.2525
     18 O         138.9085  139.3040  166.7094 O.3     1  UNL1       -0.4702
     19 N         141.4845  140.6831  166.0292 N.pl3   1  UNL1       -0.2801
     20 H         141.3997  140.6462  167.0093 H       1  UNL1        0.1552
     21 C         142.0941  141.8868  165.3739 C.ar    1  UNL1        0.2208
     22 N         143.4529  142.3625  165.7950 N.ar    1  UNL1       -0.2111
     23 C         144.0625  143.5662  165.1397 C.ar    1  UNL1        0.1147
     24 C         143.3133  144.2943  164.0634 C.ar    1  UNL1        0.0946
     25 CL        143.9229  145.4980  163.4081 Cl      1  UNL1       -0.0790
     26 C         141.9544  143.8186  163.6422 C.ar    1  UNL1        0.0992
     27 N         141.3449  142.6149  164.2975 N.ar    1  UNL1       -0.2126
     28 C         141.2052  144.5467  162.5659 C.ar    1  UNL1        0.0572
     29 C         140.0714  145.5062  162.7754 C.ar    1  UNL1        0.1235
     30 N         139.6237  145.9955  161.4300 N.ar    1  UNL1       -0.1634
     31 N         140.4808  145.3385  160.3890 N.ar    1  UNL1       -0.2281
     32 C         140.4976  145.4399  158.8925 C.ar    1  UNL1        0.1004
     33 C         141.4917  144.6459  158.0981 C.ar    1  UNL1        0.0207
     34 C         142.4691  143.7504  158.8001 C.ar    1  UNL1        0.0031
     35 C         142.4524  143.6490  160.2966 C.ar    1  UNL1        0.0193
     36 C         141.4582  144.4430  161.0910 C.ar    1  UNL1        0.0858
@<TRIPOS>BOND
     1    17    18    1
     2    18     1    1
     3     1     2   ar
     4     2     3   ar
     5     3     4   ar
     6     4     7    1
     7     7     8   am
     8     8     9    2
     9     8    11    1
    10    11    12    2
    11    12    13    1
    12    13    14    1
    13    14    15    1
    14    14    16    1
    15     4     5   ar
    16     5     6   ar
    17     6    19    1
    18    19    21    1
    19    21    22   ar
    20    22    23   ar
    21    23    24   ar
    22    24    25    1
    23    24    26   ar
    24    26    28    1
    25    28    29   ar
    26    29    30   ar
    27    30    31   ar
    28    31    32   ar
    29    32    33   ar
    30    33    34   ar
    31    34    35   ar
    32    35    36   ar
    33    26    27   ar
    34     6     1   ar
    35    27    21   ar
    36    36    28   ar
    37    36    31   ar
    38     7    10    1
    39    19    20    1
@<TRIPOS>MOLECULE
*****
 36 39 0 0 0
SMALL
GASTEIGER

@<TRIPOS>ATOM
      1 C         142.9084  143.1318  158.4883 C.ar    1  UNL1        0.1521
      2 C         142.2557  142.7129  157.2042 C.ar    1  UNL1        0.0395
      3 C         142.5731  141.3758  156.6029 C.ar    1  UNL1        0.0179
      4 C         143.5432  140.4577  157.2855 C.ar    1  UNL1        0.0520
      5 C         144.1958  140.8766  158.5695 C.ar    1  UNL1        0.0324
      6 C         143.8784  142.2136  159.1709 C.ar    1  UNL1        0.0861
      7 N         143.8606  139.1207  156.6842 N.am    1  UNL1       -0.2804
      8 C         142.9611  137.9489  156.9442 C.2     1  UNL1        0.2494
      9 O         141.7442  138.1140  157.8056 O.2     1  UNL1       -0.2698
     10 H         144.6593  139.0123  156.1189 H       1  UNL1        0.1552
     11 C         143.2784  136.6118  156.3429 C.2     1  UNL1        0.0549
     12 C         142.2691  135.5038  156.4028 C.2     1  UNL1       -0.0041
     13 C         142.5865  134.1667  155.8015 C.3     1  UNL1        0.0991
     14 N         143.1464  133.0720  156.6606 N.3     1  UNL1       -0.2665
     15 C         142.6694  131.6610  156.4830 C.3     1  UNL1        0.0899
     16 C         144.1834  133.3882  157.6972 C.3     1  UNL1        0.0899
     17 C         141.2560  144.7045  159.7318 C.3     1  UNL1        0.2525
     18 O         142.5909  144.4688  159.0896 O.3     1  UNL1       -0.4702
     19 N         144.5311  142.6324  160.4549 N.pl3   1  UNL1       -0.2801
     20 H         144.9972  143.4978  160.5107 H       1  UNL1        0.1552
     21 C         144.4737  141.7328  161.6537 C.ar    1  UNL1        0.2208
     22 N         145.5878  141.7495  162.6580 N.ar    1  UNL1       -0.2111
     23 C         145.5304  140.8499  163.8568 C.ar    1  UNL1        0.1147
     24 C         144.3589  139.9335  164.0515 C.ar    1  UNL1        0.0946
     25 CL        144.3015  139.0339  165.2504 Cl      1  UNL1       -0.0790
     26 C         143.2447  139.9168  163.0472 C.ar    1  UNL1        0.0992
     27 N         143.3022  140.8164  161.8484 N.ar    1  UNL1       -0.2126
     28 C         142.0732  139.0004  163.2419 C.ar    1  UNL1        0.0572
     29 C         141.8042  137.7386  162.4768 C.ar    1  UNL1        0.1235
     30 N         140.5298  137.1434  162.9979 N.ar    1  UNL1       -0.1634
     31 N         140.0112  138.0374  164.0850 N.ar    1  UNL1       -0.2281
     32 C         138.7936  137.9546  164.9571 C.ar    1  UNL1        0.1004
     33 C         138.5299  139.0196  165.9799 C.ar    1  UNL1        0.0207
     34 C         139.4838  140.1673  166.1307 C.ar    1  UNL1        0.0031
     35 C         140.7014  140.2501  165.2586 C.ar    1  UNL1        0.0193
     36 C         140.9651  139.1851  164.2358 C.ar    1  UNL1        0.0858
@<TRIPOS>BOND
     1    17    18    1
     2    18     1    1
     3     1     2   ar
     4     2     3   ar
     5     3     4   ar
     6     4     7    1
     7     7     8   am
     8     8     9    2
     9     8    11    1
    10    11    12    2
    11    12    13    1
    12    13    14    1
    13    14    15    1
    14    14    16    1
    15     4     5   ar
    16     5     6   ar
    17     6    19    1
    18    19    21    1
    19    21    22   ar
    20    22    23   ar
    21    23    24   ar
    22    24    25    1
    23    24    26   ar
    24    26    28    1
    25    28    29   ar
    26    29    30   ar
    27    30    31   ar
    28    31    32   ar
    29    32    33   ar
    30    33    34   ar
    31    34    35   ar
    32    35    36   ar
    33    26    27   ar
    34     6     1   ar
    35    27    21   ar
    36    36    28   ar
    37    36    31   ar
    38     7    10    1
    39    19    20    1
@<TRIPOS>MOLECULE
*****
 36 39 0 0 0
SMALL
GASTEIGER

@<TRIPOS>ATOM
      1 C         138.7326  144.4013  162.8551 C.ar    1  UNL1        0.1521
      2 C         139.6014  145.5102  162.3396 C.ar    1  UNL1        0.0395
      3 C         140.4623  145.2884  161.1314 C.ar    1  UNL1        0.0179
      4 C         140.4544  143.9580  160.4387 C.ar    1  UNL1        0.0520
      5 C         139.5856  142.8492  160.9543 C.ar    1  UNL1        0.0324
      6 C         138.7246  143.0709  162.1625 C.ar    1  UNL1        0.0861
      7 N         141.3153  143.7362  159.2306 N.am    1  UNL1       -0.2804
      8 C         142.7605  143.3705  159.3964 C.2     1  UNL1        0.2494
      9 O         143.3449  143.2266  160.7704 O.2     1  UNL1       -0.2698
     10 H         140.9318  143.8307  158.3288 H       1  UNL1        0.1552
     11 C         143.6215  143.1488  158.1883 C.2     1  UNL1        0.0549
     12 C         144.9606  142.4884  158.3325 C.2     1  UNL1       -0.0041
     13 C         145.8215  142.2667  157.1243 C.3     1  UNL1        0.0991
     14 N         145.1934  141.8943  155.8141 N.3     1  UNL1       -0.2665
     15 C         144.7315  140.4870  155.5769 C.3     1  UNL1        0.0899
     16 C         145.0272  142.9290  154.7409 C.3     1  UNL1        0.0899
     17 C         138.5048  144.8918  165.3963 C.3     1  UNL1        0.2525
     18 O         137.8717  144.6231  164.0633 O.3     1  UNL1       -0.4702
     19 N         137.8559  141.9621  162.6780 N.pl3   1  UNL1       -0.2801
     20 H         136.8766  142.0630  162.6769 H       1  UNL1        0.1552
     21 C         138.4791  140.6994  163.1950 C.ar    1  UNL1        0.2208
     22 N         138.1793  139.3884  162.5307 N.ar    1  UNL1       -0.2111
     23 C         138.8025  138.1258  163.0477 C.ar    1  UNL1        0.1147
     24 C         139.7255  138.1742  164.2291 C.ar    1  UNL1        0.0946
     25 CL        140.3488  136.9116  164.7462 Cl      1  UNL1       -0.0790
     26 C         140.0253  139.4853  164.8935 C.ar    1  UNL1        0.0992
     27 N         139.4021  140.7478  164.3764 N.ar    1  UNL1       -0.2126
     28 C         140.9483  139.5337  166.0749 C.ar    1  UNL1        0.0572
     29 C         142.4363  139.3472  166.0395 C.ar    1  UNL1        0.1235
     30 N         142.9529  139.4753  167.4419 N.ar    1  UNL1       -0.1634
     31 N         141.7843  139.7410  168.3440 N.ar    1  UNL1       -0.2281
     32 C         141.6883  139.9547  169.8256 C.ar    1  UNL1        0.1004
     33 C         140.3533  140.2045  170.4623 C.ar    1  UNL1        0.0207
     34 C         139.1144  140.2406  169.6174 C.ar    1  UNL1        0.0031
     35 C         139.2104  140.0269  168.1359 C.ar    1  UNL1        0.0193
     36 C         140.5454  139.7771  167.4992 C.ar    1  UNL1        0.0858
@<TRIPOS>BOND
     1    17    18    1
     2    18     1    1
     3     1     2   ar
     4     2     3   ar
     5     3     4   ar
     6     4     7    1
     7     7     8   am
     8     8     9    2
     9     8    11    1
    10    11    12    2
    11    12    13    1
    12    13    14    1
    13    14    15    1
    14    14    16    1
    15     4     5   ar
    16     5     6   ar
    17     6    19    1
    18    19    21    1
    19    21    22   ar
    20    22    23   ar
    21    23    24   ar
    22    24    25    1
    23    24    26   ar
    24    26    28    1
    25    28    29   ar
    26    29    30   ar
    27    30    31   ar
    28    31    32   ar
    29    32    33   ar
    30    33    34   ar
    31    34    35   ar
    32    35    36   ar
    33    26    27   ar
    34     6     1   ar
    35    27    21   ar
    36    36    28   ar
    37    36    31   ar
    38     7    10    1
    39    19    20    1
@<TRIPOS>MOLECULE
*****
 36 39 0 0 0
SMALL
GASTEIGER

@<TRIPOS>ATOM
      1 C         142.2821  143.4899  161.4377 C.ar    1  UNL1        0.1521
      2 C         141.6077  143.5791  160.1007 C.ar    1  UNL1        0.0395
      3 C         142.3897  143.3188  158.8474 C.ar    1  UNL1        0.0179
      4 C         143.8461  142.9694  158.9310 C.ar    1  UNL1        0.0520
      5 C         144.5204  142.8803  160.2679 C.ar    1  UNL1        0.0324
      6 C         143.7385  143.1405  161.5213 C.ar    1  UNL1        0.0861
      7 N         144.6281  142.7091  157.6777 N.am    1  UNL1       -0.2804
      8 C         144.9470  141.3008  157.2717 C.2     1  UNL1        0.2494
      9 O         144.4840  140.1528  158.1188 O.2     1  UNL1       -0.2698
     10 H         144.9320  143.4626  157.1217 H       1  UNL1        0.1552
     11 C         145.7290  141.0404  156.0184 C.2     1  UNL1        0.0549
     12 C         146.9112  141.8994  155.6798 C.2     1  UNL1       -0.0041
     13 C         147.6931  141.6390  154.4265 C.3     1  UNL1        0.0991
     14 N         149.0839  142.1823  154.2838 N.3     1  UNL1       -0.2665
     15 C         149.3840  143.2082  153.2313 C.3     1  UNL1        0.0899
     16 C         150.1747  141.6999  155.1934 C.3     1  UNL1        0.0899
     17 C         141.4059  145.1427  163.2406 C.3     1  UNL1        0.2525
     18 O         141.5001  143.7502  162.6910 O.3     1  UNL1       -0.4702
     19 N         144.4129  143.0514  162.8581 N.pl3   1  UNL1       -0.2801
     20 H         144.9647  143.7996  163.1819 H       1  UNL1        0.1552
     21 C         144.2465  141.8222  163.7016 C.ar    1  UNL1        0.2208
     22 N         145.1211  140.6267  163.4656 N.ar    1  UNL1       -0.2111
     23 C         144.9548  139.3975  164.3091 C.ar    1  UNL1        0.1147
     24 C         143.9139  139.3640  165.3887 C.ar    1  UNL1        0.0946
     25 CL        143.7476  138.1348  166.2322 Cl      1  UNL1       -0.0790
     26 C         143.0393  140.5596  165.6247 C.ar    1  UNL1        0.0992
     27 N         143.2057  141.7887  164.7812 N.ar    1  UNL1       -0.2126
     28 C         141.9984  140.5261  166.7043 C.ar    1  UNL1        0.0572
     29 C         140.6725  139.8288  166.6292 C.ar    1  UNL1        0.1235
     30 N         139.9554  140.0557  167.9270 N.ar    1  UNL1       -0.1634
     31 N         140.8381  140.8932  168.8042 N.ar    1  UNL1       -0.2281
     32 C         140.6553  141.4286  170.1934 C.ar    1  UNL1        0.1004
     33 C         141.7352  142.2547  170.8268 C.ar    1  UNL1        0.0207
     34 C         142.9979  142.5454  170.0712 C.ar    1  UNL1        0.0031
     35 C         143.1807  142.0100  168.6820 C.ar    1  UNL1        0.0193
     36 C         142.1008  141.1839  168.0485 C.ar    1  UNL1        0.0858
@<TRIPOS>BOND
     1    17    18    1
     2    18     1    1
     3     1     2   ar
     4     2     3   ar
     5     3     4   ar
     6     4     7    1
     7     7     8   am
     8     8     9    2
     9     8    11    1
    10    11    12    2
    11    12    13    1
    12    13    14    1
    13    14    15    1
    14    14    16    1
    15     4     5   ar
    16     5     6   ar
    17     6    19    1
    18    19    21    1
    19    21    22   ar
    20    22    23   ar
    21    23    24   ar
    22    24    25    1
    23    24    26   ar
    24    26    28    1
    25    28    29   ar
    26    29    30   ar
    27    30    31   ar
    28    31    32   ar
    29    32    33   ar
    30    33    34   ar
    31    34    35   ar
    32    35    36   ar
    33    26    27   ar
    34     6     1   ar
    35    27    21   ar
    36    36    28   ar
    37    36    31   ar
    38     7    10    1
    39    19    20    1
@<TRIPOS>MOLECULE
*****
 36 39 0 0 0
SMALL
GASTEIGER

@<TRIPOS>ATOM
      1 C         138.6347  144.3135  162.4744 C.ar    1  UNL1        0.1521
      2 C         139.4990  145.5329  162.3470 C.ar    1  UNL1        0.0395
      3 C         140.4761  145.6445  161.2144 C.ar    1  UNL1        0.0179
      4 C         140.5889  144.5369  160.2092 C.ar    1  UNL1        0.0520
      5 C         139.7246  143.3176  160.3367 C.ar    1  UNL1        0.0324
      6 C         138.7475  143.2059  161.4693 C.ar    1  UNL1        0.0861
      7 N         141.5661  144.6485  159.0766 N.am    1  UNL1       -0.2804
      8 C         141.2445  145.5090  157.8908 C.2     1  UNL1        0.2494
      9 O         139.9458  146.2578  157.8376 O.2     1  UNL1       -0.2698
     10 H         142.4184  144.1571  159.1115 H       1  UNL1        0.1552
     11 C         142.2215  145.6207  156.7582 C.2     1  UNL1        0.0549
     12 C         141.9473  144.9222  155.4593 C.2     1  UNL1       -0.0041
     13 C         142.9244  145.0340  154.3267 C.3     1  UNL1        0.0991
     14 N         143.7100  143.8322  153.8928 N.3     1  UNL1       -0.2665
     15 C         144.4069  142.9829  154.9141 C.3     1  UNL1        0.0899
     16 C         143.7989  143.4796  152.4375 C.3     1  UNL1        0.0899
     17 C         138.1233  144.3886  165.0206 C.3     1  UNL1        0.2525
     18 O         137.6575  144.2019  163.6070 O.3     1  UNL1       -0.4702
     19 N         137.8832  141.9865  161.5966 N.pl3   1  UNL1       -0.2801
     20 H         136.9992  141.9624  161.1639 H       1  UNL1        0.1552
     21 C         138.3657  140.8040  162.3833 C.ar    1  UNL1        0.2208
     22 N         138.8956  139.5950  161.6710 N.ar    1  UNL1       -0.2111
     23 C         139.3781  138.4125  162.4576 C.ar    1  UNL1        0.1147
     24 C         139.3306  138.4390  163.9566 C.ar    1  UNL1        0.0946
     25 CL        139.8131  137.2565  164.7433 Cl      1  UNL1       -0.0790
     26 C         138.8007  139.6481  164.6690 C.ar    1  UNL1        0.0992
     27 N         138.3183  140.8305  163.8823 N.ar    1  UNL1       -0.2126
     28 C         138.7533  139.6746  166.1680 C.ar    1  UNL1        0.0572
     29 C         137.8897  138.8104  167.0383 C.ar    1  UNL1        0.1235
     30 N         138.1639  139.1717  168.4680 N.ar    1  UNL1       -0.1634
     31 N         139.1969  140.2592  168.4815 N.ar    1  UNL1       -0.2281
     32 C         139.8529  141.0066  169.6044 C.ar    1  UNL1        0.1004
     33 C         140.8732  142.0648  169.3059 C.ar    1  UNL1        0.0207
     34 C         141.2375  142.3756  167.8844 C.ar    1  UNL1        0.0031
     35 C         140.5815  141.6282  166.7614 C.ar    1  UNL1        0.0193
     36 C         139.5612  140.5700  167.0600 C.ar    1  UNL1        0.0858
@<TRIPOS>BOND
     1    17    18    1
     2    18     1    1
     3     1     2   ar
     4     2     3   ar
     5     3     4   ar
     6     4     7    1
     7     7     8   am
     8     8     9    2
     9     8    11    1
    10    11    12    2
    11    12    13    1
    12    13    14    1
    13    14    15    1
    14    14    16    1
    15     4     5   ar
    16     5     6   ar
    17     6    19    1
    18    19    21    1
    19    21    22   ar
    20    22    23   ar
    21    23    24   ar
    22    24    25    1
    23    24    26   ar
    24    26    28    1
    25    28    29   ar
    26    29    30   ar
    27    30    31   ar
    28    31    32   ar
    29    32    33   ar
    30    33    34   ar
    31    34    35   ar
    32    35    36   ar
    33    26    27   ar
    34     6     1   ar
    35    27    21   ar
    36    36    28   ar
    37    36    31   ar
    38     7    10    1
    39    19    20    1
@<TRIPOS>MOLECULE
*****
 36 39 0 0 0
SMALL
GASTEIGER

@<TRIPOS>ATOM
      1 C         144.5408  141.8072  161.2944 C.ar    1  UNL1        0.1521
      2 C         144.2348  142.3477  159.9290 C.ar    1  UNL1        0.0395
      3 C         143.8539  141.4121  158.8201 C.ar    1  UNL1        0.0179
      4 C         143.7789  139.9361  159.0766 C.ar    1  UNL1        0.0520
      5 C         144.0849  139.3957  160.4420 C.ar    1  UNL1        0.0324
      6 C         144.4659  140.3313  161.5509 C.ar    1  UNL1        0.0861
      7 N         143.3980  139.0006  157.9677 N.am    1  UNL1       -0.2804
      8 C         142.0322  138.3808  157.9454 C.2     1  UNL1        0.2494
      9 O         141.0474  138.6966  159.0319 O.2     1  UNL1       -0.2698
     10 H         144.0443  138.7933  157.2546 H       1  UNL1        0.1552
     11 C         141.6512  137.4452  156.8366 C.2     1  UNL1        0.0549
     12 C         142.2490  136.0708  156.7760 C.2     1  UNL1       -0.0041
     13 C         141.8679  135.1353  155.6672 C.3     1  UNL1        0.0991
     14 N         142.3518  133.7156  155.6842 N.3     1  UNL1       -0.2665
     15 C         141.4202  132.6012  155.3098 C.3     1  UNL1        0.0899
     16 C         143.7672  133.4103  156.0756 C.3     1  UNL1        0.0899
     17 C         143.9852  143.8403  162.8137 C.3     1  UNL1        0.2525
     18 O         144.9218  142.7428  162.4033 O.3     1  UNL1       -0.4702
     19 N         144.7718  139.7908  162.9163 N.pl3   1  UNL1       -0.2801
     20 H         145.6802  139.4763  163.1290 H       1  UNL1        0.1552
     21 C         143.6939  139.7293  163.9575 C.ar    1  UNL1        0.2208
     22 N         143.9786  139.1160  165.2965 N.ar    1  UNL1       -0.2111
     23 C         142.9006  139.0546  166.3377 C.ar    1  UNL1        0.1147
     24 C         141.5379  139.6064  166.0400 C.ar    1  UNL1        0.0946
     25 CL        140.4600  139.5450  167.0813 Cl      1  UNL1       -0.0790
     26 C         141.2532  140.2197  164.7010 C.ar    1  UNL1        0.0992
     27 N         142.3312  140.2812  163.6598 N.ar    1  UNL1       -0.2126
     28 C         139.8906  140.7716  164.4033 C.ar    1  UNL1        0.0572
     29 C         138.7734  140.0406  163.7195 C.ar    1  UNL1        0.1235
     30 N         137.5982  140.9686  163.6308 N.ar    1  UNL1       -0.1634
     31 N         137.9891  142.2731  164.2597 N.ar    1  UNL1       -0.2281
     32 C         137.2381  143.5560  164.4593 C.ar    1  UNL1        0.1004
     33 C         137.9037  144.7172  165.1364 C.ar    1  UNL1        0.0207
     34 C         139.3205  144.5954  165.6139 C.ar    1  UNL1        0.0031
     35 C         140.0716  143.3125  165.4143 C.ar    1  UNL1        0.0193
     36 C         139.4059  142.1513  164.7372 C.ar    1  UNL1        0.0858
@<TRIPOS>BOND
     1    17    18    1
     2    18     1    1
     3     1     2   ar
     4     2     3   ar
     5     3     4   ar
     6     4     7    1
     7     7     8   am
     8     8     9    2
     9     8    11    1
    10    11    12    2
    11    12    13    1
    12    13    14    1
    13    14    15    1
    14    14    16    1
    15     4     5   ar
    16     5     6   ar
    17     6    19    1
    18    19    21    1
    19    21    22   ar
    20    22    23   ar
    21    23    24   ar
    22    24    25    1
    23    24    26   ar
    24    26    28    1
    25    28    29   ar
    26    29    30   ar
    27    30    31   ar
    28    31    32   ar
    29    32    33   ar
    30    33    34   ar
    31    34    35   ar
    32    35    36   ar
    33    26    27   ar
    34     6     1   ar
    35    27    21   ar
    36    36    28   ar
    37    36    31   ar
    38     7    10    1
    39    19    20    1
@<TRIPOS>MOLECULE
*****
 36 39 0 0 0
SMALL
GASTEIGER

@<TRIPOS>ATOM
      1 C         140.5437  143.4438  158.9400 C.ar    1  UNL1        0.1521
      2 C         140.4776  142.5764  157.7179 C.ar    1  UNL1        0.0395
      3 C         141.7117  142.3392  156.8989 C.ar    1  UNL1        0.0179
      4 C         143.0119  142.9693  157.3019 C.ar    1  UNL1        0.0520
      5 C         143.0780  143.8367  158.5239 C.ar    1  UNL1        0.0324
      6 C         141.8439  144.0739  159.3430 C.ar    1  UNL1        0.0861
      7 N         144.2460  142.7322  156.4829 N.am    1  UNL1       -0.2804
      8 C         145.0669  141.4965  156.7043 C.2     1  UNL1        0.2494
      9 O         144.6538  140.4980  157.7446 O.2     1  UNL1       -0.2698
     10 H         144.5171  143.3875  155.8001 H       1  UNL1        0.1552
     11 C         146.3010  141.2592  155.8853 C.2     1  UNL1        0.0549
     12 C         147.5094  142.1261  156.0812 C.2     1  UNL1       -0.0041
     13 C         148.7434  141.8888  155.2622 C.3     1  UNL1        0.0991
     14 N         148.8357  142.4368  153.8690 N.3     1  UNL1       -0.2665
     15 C         148.0778  143.6773  153.4992 C.3     1  UNL1        0.0899
     16 C         149.6859  141.7444  152.8454 C.3     1  UNL1        0.0899
     17 C         138.5614  142.5188  160.3417 C.3     1  UNL1        0.2525
     18 O         139.3096  143.6809  159.7590 O.3     1  UNL1       -0.4702
     19 N         141.9101  144.9412  160.5650 N.pl3   1  UNL1       -0.2801
     20 H         141.6844  145.8975  160.5027 H       1  UNL1        0.1552
     21 C         142.3200  144.3516  161.8820 C.ar    1  UNL1        0.2208
     22 N         143.5479  144.8566  162.5801 N.ar    1  UNL1       -0.2111
     23 C         143.9578  144.2670  163.8970 C.ar    1  UNL1        0.1147
     24 C         143.1399  143.1724  164.5158 C.ar    1  UNL1        0.0946
     25 CL        143.5499  142.5828  165.8327 Cl      1  UNL1       -0.0790
     26 C         141.9120  142.6674  163.8176 C.ar    1  UNL1        0.0992
     27 N         141.5021  143.2570  162.5008 N.ar    1  UNL1       -0.2126
     28 C         141.0941  141.5728  164.4364 C.ar    1  UNL1        0.0572
     29 C         140.0104  141.7518  165.4580 C.ar    1  UNL1        0.1235
     30 N         139.4629  140.3966  165.7952 N.ar    1  UNL1       -0.1634
     31 N         140.2083  139.3801  164.9821 N.ar    1  UNL1       -0.2281
     32 C         140.0992  137.8864  164.8979 C.ar    1  UNL1        0.1004
     33 C         140.9982  137.1197  163.9739 C.ar    1  UNL1        0.0207
     34 C         142.0064  137.8467  163.1341 C.ar    1  UNL1        0.0031
     35 C         142.1155  139.3403  163.2184 C.ar    1  UNL1        0.0193
     36 C         141.2164  140.1070  164.1423 C.ar    1  UNL1        0.0858
@<TRIPOS>BOND
     1    17    18    1
     2    18     1    1
     3     1     2   ar
     4     2     3   ar
     5     3     4   ar
     6     4     7    1
     7     7     8   am
     8     8     9    2
     9     8    11    1
    10    11    12    2
    11    12    13    1
    12    13    14    1
    13    14    15    1
    14    14    16    1
    15     4     5   ar
    16     5     6   ar
    17     6    19    1
    18    19    21    1
    19    21    22   ar
    20    22    23   ar
    21    23    24   ar
    22    24    25    1
    23    24    26   ar
    24    26    28    1
    25    28    29   ar
    26    29    30   ar
    27    30    31   ar
    28    31    32   ar
    29    32    33   ar
    30    33    34   ar
    31    34    35   ar
    32    35    36   ar
    33    26    27   ar
    34     6     1   ar
    35    27    21   ar
    36    36    28   ar
    37    36    31   ar
    38     7    10    1
    39    19    20    1
@<TRIPOS>MOLECULE
*****
 36 39 0 0 0
SMALL
GASTEIGER

@<TRIPOS>ATOM
      1 C         143.8429  140.7507  161.8870 C.ar    1  UNL1        0.1521
      2 C         144.4315  139.3711  161.8648 C.ar    1  UNL1        0.0395
      3 C         143.9887  138.3835  160.8263 C.ar    1  UNL1        0.0179
      4 C         142.9574  138.7753  159.8100 C.ar    1  UNL1        0.0520
      5 C         142.3689  140.1548  159.8322 C.ar    1  UNL1        0.0324
      6 C         142.8116  141.1426  160.8707 C.ar    1  UNL1        0.0861
      7 N         142.5147  137.7877  158.7715 N.am    1  UNL1       -0.2804
      8 C         143.0143  137.9067  157.3622 C.2     1  UNL1        0.2494
      9 O         143.9565  139.0133  156.9913 O.2     1  UNL1       -0.2698
     10 H         141.8962  137.0614  159.0149 H       1  UNL1        0.1552
     11 C         142.5715  136.9191  156.3236 C.2     1  UNL1        0.0549
     12 C         143.4998  135.8258  155.8842 C.2     1  UNL1       -0.0041
     13 C         143.0570  134.8382  154.8456 C.3     1  UNL1        0.0991
     14 N         142.7300  133.4290  155.2419 N.3     1  UNL1       -0.2665
     15 C         141.3061  132.9574  155.2288 C.3     1  UNL1        0.0899
     16 C         143.8269  132.4913  155.6513 C.3     1  UNL1        0.0899
     17 C         145.7173  141.7660  163.3722 C.3     1  UNL1        0.2525
     18 O         144.2856  141.7384  162.9255 O.3     1  UNL1       -0.4702
     19 N         142.2230  142.5221  160.8929 N.pl3   1  UNL1       -0.2801
     20 H         142.5814  143.2198  160.2979 H       1  UNL1        0.1552
     21 C         141.0883  142.8386  161.8215 C.ar    1  UNL1        0.2208
     22 N         140.3037  144.1044  161.6427 N.ar    1  UNL1       -0.2111
     23 C         139.1690  144.4210  162.5713 C.ar    1  UNL1        0.1147
     24 C         138.8190  143.4716  163.6787 C.ar    1  UNL1        0.0946
     25 CL        137.6843  143.7881  164.6073 Cl      1  UNL1       -0.0790
     26 C         139.6036  142.2057  163.8574 C.ar    1  UNL1        0.0992
     27 N         140.7383  141.8893  162.9288 N.ar    1  UNL1       -0.2126
     28 C         139.2536  141.2564  164.9648 C.ar    1  UNL1        0.0572
     29 C         138.3949  140.0330  164.8388 C.ar    1  UNL1        0.1235
     30 N         138.3114  139.3843  166.1887 N.ar    1  UNL1       -0.1634
     31 N         139.1185  140.2068  167.1490 N.ar    1  UNL1       -0.2281
     32 C         139.3984  140.0517  168.6144 C.ar    1  UNL1        0.1004
     33 C         140.2606  141.0536  169.3234 C.ar    1  UNL1        0.0207
     34 C         140.8429  142.2106  168.5670 C.ar    1  UNL1        0.0031
     35 C         140.5630  142.3657  167.1015 C.ar    1  UNL1        0.0193
     36 C         139.7008  141.3638  166.3925 C.ar    1  UNL1        0.0858
@<TRIPOS>BOND
     1    17    18    1
     2    18     1    1
     3     1     2   ar
     4     2     3   ar
     5     3     4   ar
     6     4     7    1
     7     7     8   am
     8     8     9    2
     9     8    11    1
    10    11    12    2
    11    12    13    1
    12    13    14    1
    13    14    15    1
    14    14    16    1
    15     4     5   ar
    16     5     6   ar
    17     6    19    1
    18    19    21    1
    19    21    22   ar
    20    22    23   ar
    21    23    24   ar
    22    24    25    1
    23    24    26   ar
    24    26    28    1
    25    28    29   ar
    26    29    30   ar
    27    30    31   ar
    28    31    32   ar
    29    32    33   ar
    30    33    34   ar
    31    34    35   ar
    32    35    36   ar
    33    26    27   ar
    34     6     1   ar
    35    27    21   ar
    36    36    28   ar
    37    36    31   ar
    38     7    10    1
    39    19    20    1
