@<TRIPOS>MOLECULE
*****
 26 28 0 0 0
SMALL
GASTEIGER

@<TRIPOS>ATOM
      1 C         139.4215  137.5677  164.9962 C.3     1  UNL1        0.0400
      2 C         138.9405  138.9587  164.7069 C.ar    1  UNL1        0.0323
      3 S         138.3915  139.4477  163.3994 S.2     1  UNL1       -0.0557
      4 C         138.0357  140.8961  163.5587 C.ar    1  UNL1        0.1634
      5 N         138.3648  141.3024  164.9646 N.ar    1  UNL1       -0.2197
      6 C         138.9240  140.1051  165.6743 C.ar    1  UNL1        0.1386
      7 C         139.3856  140.0616  167.1008 C.2     1  UNL1        0.2670
      8 O         138.5871  139.3110  168.1250 O.2     1  UNL1       -0.2682
      9 N         140.6458  140.7687  167.5032 N.am    1  UNL1       -0.2765
     10 C         141.4443  141.5192  166.4790 C.3     1  UNL1        0.0937
     11 C         142.7045  142.2264  166.8813 C.3     1  UNL1        0.0216
     12 C         143.1661  142.1829  168.3078 C.3     1  UNL1        0.0034
     13 C         142.3676  141.4323  169.3320 C.3     1  UNL1        0.0183
     14 C         142.8293  141.3889  170.7586 C.3     1  UNL1        0.0017
     15 C         141.1074  140.7252  168.9297 C.3     1  UNL1        0.0757
     16 C         140.3089  139.9747  169.9538 C.3     1  UNL1        0.0215
     17 N         137.4531  141.7827  162.4982 N.pl3   1  UNL1       -0.2910
     18 H         136.4867  141.7578  162.3121 H       1  UNL1        0.1542
     19 C         138.3430  142.7071  161.7212 C.ar    1  UNL1        0.0776
     20 C         138.6887  142.3933  160.2958 C.ar    1  UNL1        0.0178
     21 C         139.5785  143.3177  159.5189 C.ar    1  UNL1        0.0128
     22 C         140.1227  144.5560  160.1675 C.ar    1  UNL1        0.0600
     23 CL        141.0126  145.4804  159.3906 Cl      1  UNL1       -0.0822
     24 C         139.7771  144.8697  161.5930 C.ar    1  UNL1        0.0423
     25 C         138.8872  143.9453  162.3699 C.ar    1  UNL1        0.1543
     26 F         138.5415  144.2591  163.7954 F       1  UNL1       -0.2028
@<TRIPOS>BOND
     1     1     2    1
     2     2     3   ar
     3     3     4   ar
     4     4    17    1
     5    17    19    1
     6    19    20   ar
     7    20    21   ar
     8    21    22   ar
     9    22    23    1
    10    22    24   ar
    11    24    25   ar
    12    25    26    1
    13     4     5   ar
    14     5     6   ar
    15     6     7    1
    16     7     8    2
    17     7     9   am
    18     9    10    1
    19    10    11    1
    20    11    12    1
    21    12    13    1
    22    13    14    1
    23    13    15    1
    24    15    16    1
    25     6     2   ar
    26    15     9    1
    27    25    19   ar
    28    17    18    1
@<TRIPOS>MOLECULE
*****
 26 28 0 0 0
SMALL
GASTEIGER

@<TRIPOS>ATOM
      1 C         140.4772  140.3110  159.9640 C.3     1  UNL1        0.0400
      2 C         141.3238  139.1504  159.5324 C.ar    1  UNL1        0.0323
      3 S         141.7871  138.8689  158.1339 S.2     1  UNL1       -0.0557
      4 C         142.6055  137.6121  158.1608 C.ar    1  UNL1        0.1634
      5 N         142.6480  137.1169  159.5761 N.ar    1  UNL1       -0.2197
      6 C         141.8559  138.0676  160.4238 C.ar    1  UNL1        0.1386
      7 C         141.6346  137.9553  161.9032 C.2     1  UNL1        0.2670
      8 O         140.4292  137.2335  162.4286 O.2     1  UNL1       -0.2682
      9 N         142.6187  138.5647  162.8571 N.am    1  UNL1       -0.2765
     10 C         143.8241  139.2865  162.3317 C.3     1  UNL1        0.0937
     11 C         144.8083  139.8959  163.2856 C.3     1  UNL1        0.0216
     12 C         144.5871  139.7836  164.7649 C.3     1  UNL1        0.0034
     13 C         143.3817  139.0618  165.2903 C.3     1  UNL1        0.0183
     14 C         143.1605  138.9495  166.7697 C.3     1  UNL1        0.0017
     15 C         142.3975  138.4523  164.3364 C.3     1  UNL1        0.0757
     16 C         141.1922  137.7306  164.8618 C.3     1  UNL1        0.0215
     17 N         143.2655  136.9642  156.9799 N.pl3   1  UNL1       -0.2910
     18 H         143.9476  137.4548  156.4667 H       1  UNL1        0.1542
     19 C         142.8862  135.5689  156.5807 C.ar    1  UNL1        0.0776
     20 C         143.6018  134.3960  157.1824 C.ar    1  UNL1        0.0178
     21 C         143.2225  133.0007  156.7832 C.ar    1  UNL1        0.0128
     22 C         142.1277  132.7784  155.7823 C.ar    1  UNL1        0.0600
     23 CL        141.7484  131.3831  155.3832 Cl      1  UNL1       -0.0822
     24 C         141.4121  133.9513  155.1806 C.ar    1  UNL1        0.0423
     25 C         141.7913  135.3466  155.5798 C.ar    1  UNL1        0.1543
     26 F         141.0757  136.5196  154.9781 F       1  UNL1       -0.2028
@<TRIPOS>BOND
     1     1     2    1
     2     2     3   ar
     3     3     4   ar
     4     4    17    1
     5    17    19    1
     6    19    20   ar
     7    20    21   ar
     8    21    22   ar
     9    22    23    1
    10    22    24   ar
    11    24    25   ar
    12    25    26    1
    13     4     5   ar
    14     5     6   ar
    15     6     7    1
    16     7     8    2
    17     7     9   am
    18     9    10    1
    19    10    11    1
    20    11    12    1
    21    12    13    1
    22    13    14    1
    23    13    15    1
    24    15    16    1
    25     6     2   ar
    26    15     9    1
    27    25    19   ar
    28    17    18    1
@<TRIPOS>MOLECULE
*****
 26 28 0 0 0
SMALL
GASTEIGER

@<TRIPOS>ATOM
      1 C         144.9702  139.8097  164.5271 C.3     1  UNL1        0.0400
      2 C         143.6438  139.1492  164.2937 C.ar    1  UNL1        0.0323
      3 S         143.1479  138.6045  162.9870 S.2     1  UNL1       -0.0557
      4 C         141.7781  138.0361  163.2118 C.ar    1  UNL1        0.1634
      5 N         141.4274  138.2295  164.6574 N.ar    1  UNL1       -0.2197
      6 C         142.5805  138.9174  165.3261 C.ar    1  UNL1        0.1386
      7 C         142.6569  139.3054  166.7730 C.2     1  UNL1        0.2670
      8 O         143.4538  138.4716  167.7320 O.2     1  UNL1       -0.2682
      9 N         141.9363  140.5271  167.2609 N.am    1  UNL1       -0.2765
     10 C         141.1394  141.3608  166.3019 C.3     1  UNL1        0.0937
     11 C         140.4188  142.5826  166.7898 C.3     1  UNL1        0.0216
     12 C         140.4952  142.9706  168.2367 C.3     1  UNL1        0.0034
     13 C         141.2921  142.1368  169.1957 C.3     1  UNL1        0.0183
     14 C         141.3685  142.5249  170.6427 C.3     1  UNL1        0.0017
     15 C         142.0127  140.9151  168.7078 C.3     1  UNL1        0.0757
     16 C         142.8096  140.0813  169.6668 C.3     1  UNL1        0.0215
     17 N         140.9112  137.3881  162.1733 N.pl3   1  UNL1       -0.2910
     18 H         140.8618  136.4065  162.1160 H       1  UNL1        0.1542
     19 C         140.1196  138.2357  161.2219 C.ar    1  UNL1        0.0776
     20 C         140.7137  138.6402  159.9054 C.ar    1  UNL1        0.0178
     21 C         139.9221  139.4878  158.9541 C.ar    1  UNL1        0.0128
     22 C         138.5363  139.9307  159.3194 C.ar    1  UNL1        0.0600
     23 CL        137.7447  140.7783  158.3680 Cl      1  UNL1       -0.0822
     24 C         137.9422  139.5262  160.6359 C.ar    1  UNL1        0.0423
     25 C         138.7338  138.6787  161.5872 C.ar    1  UNL1        0.1543
     26 F         138.1397  138.2741  162.9038 F       1  UNL1       -0.2028
@<TRIPOS>BOND
     1     1     2    1
     2     2     3   ar
     3     3     4   ar
     4     4    17    1
     5    17    19    1
     6    19    20   ar
     7    20    21   ar
     8    21    22   ar
     9    22    23    1
    10    22    24   ar
    11    24    25   ar
    12    25    26    1
    13     4     5   ar
    14     5     6   ar
    15     6     7    1
    16     7     8    2
    17     7     9   am
    18     9    10    1
    19    10    11    1
    20    11    12    1
    21    12    13    1
    22    13    14    1
    23    13    15    1
    24    15    16    1
    25     6     2   ar
    26    15     9    1
    27    25    19   ar
    28    17    18    1
@<TRIPOS>MOLECULE
*****
 26 28 0 0 0
SMALL
GASTEIGER

@<TRIPOS>ATOM
      1 C         140.7403  137.3067  164.7476 C.3     1  UNL1        0.0400
      2 C         139.7240  138.3103  164.2895 C.ar    1  UNL1        0.0323
      3 S         139.1333  138.4019  162.9138 S.2     1  UNL1       -0.0557
      4 C         138.1642  139.5467  162.9007 C.ar    1  UNL1        0.1634
      5 N         138.1560  140.1627  164.2684 N.ar    1  UNL1       -0.2197
      6 C         139.1200  139.3986  165.1267 C.ar    1  UNL1        0.1386
      7 C         139.4262  139.6743  166.5690 C.2     1  UNL1        0.2670
      8 O         138.5466  139.1082  167.6440 O.2     1  UNL1       -0.2682
      9 N         140.6121  140.5161  166.9363 N.am    1  UNL1       -0.2765
     10 C         141.4918  141.0822  165.8613 C.3     1  UNL1        0.0937
     11 C         142.6777  141.9241  166.2285 C.3     1  UNL1        0.0216
     12 C         142.9840  142.1998  167.6708 C.3     1  UNL1        0.0034
     13 C         142.1043  141.6336  168.7458 C.3     1  UNL1        0.0183
     14 C         142.4106  141.9094  170.1882 C.3     1  UNL1        0.0017
     15 C         140.9184  140.7918  168.3786 C.3     1  UNL1        0.0757
     16 C         140.0387  140.2257  169.4536 C.3     1  UNL1        0.0215
     17 N         137.3468  139.9966  161.7262 N.pl3   1  UNL1       -0.2910
     18 H         136.3749  139.8399  161.7139 H       1  UNL1        0.1542
     19 C         138.0102  140.6852  160.5704 C.ar    1  UNL1        0.0776
     20 C         138.4070  139.8988  159.3563 C.ar    1  UNL1        0.0178
     21 C         139.0703  140.5873  158.2005 C.ar    1  UNL1        0.0128
     22 C         139.3370  142.0623  158.2589 C.ar    1  UNL1        0.0600
     23 CL        140.0004  142.7509  157.1031 Cl      1  UNL1       -0.0822
     24 C         138.9402  142.8487  159.4731 C.ar    1  UNL1        0.0423
     25 C         138.2769  142.1601  160.6288 C.ar    1  UNL1        0.1543
     26 F         137.8801  142.9465  161.8430 F       1  UNL1       -0.2028
@<TRIPOS>BOND
     1     1     2    1
     2     2     3   ar
     3     3     4   ar
     4     4    17    1
     5    17    19    1
     6    19    20   ar
     7    20    21   ar
     8    21    22   ar
     9    22    23    1
    10    22    24   ar
    11    24    25   ar
    12    25    26    1
    13     4     5   ar
    14     5     6   ar
    15     6     7    1
    16     7     8    2
    17     7     9   am
    18     9    10    1
    19    10    11    1
    20    11    12    1
    21    12    13    1
    22    13    14    1
    23    13    15    1
    24    15    16    1
    25     6     2   ar
    26    15     9    1
    27    25    19   ar
    28    17    18    1
@<TRIPOS>MOLECULE
*****
 26 28 0 0 0
SMALL
GASTEIGER

@<TRIPOS>ATOM
      1 C         138.6793  137.8450  162.9877 C.3     1  UNL1        0.0400
      2 C         138.7447  138.7411  164.1889 C.ar    1  UNL1        0.0323
      3 S         138.8719  138.2955  165.6155 S.2     1  UNL1       -0.0557
      4 C         138.9002  139.5191  166.4826 C.ar    1  UNL1        0.1634
      5 N         138.7905  140.7210  165.5919 N.ar    1  UNL1       -0.2197
      6 C         138.6944  140.2403  164.1743 C.ar    1  UNL1        0.1386
      7 C         138.5698  141.1065  162.9560 C.2     1  UNL1        0.2670
      8 O         137.2592  141.1989  162.2323 O.2     1  UNL1       -0.2682
      9 N         139.7558  141.8802  162.4614 N.am    1  UNL1       -0.2765
     10 C         141.0664  141.7877  163.1851 C.3     1  UNL1        0.0937
     11 C         142.2525  142.5615  162.6906 C.3     1  UNL1        0.0216
     12 C         142.1279  143.4276  161.4723 C.3     1  UNL1        0.0034
     13 C         140.8173  143.5201  160.7486 C.3     1  UNL1        0.0183
     14 C         140.6927  144.3863  159.5303 C.3     1  UNL1        0.0017
     15 C         139.6312  142.7464  161.2432 C.3     1  UNL1        0.0757
     16 C         138.3207  142.8388  160.5195 C.3     1  UNL1        0.0215
     17 N         139.0177  139.5375  167.9778 N.pl3   1  UNL1       -0.2910
     18 H         138.4399  138.9571  168.5241 H       1  UNL1        0.1542
     19 C         140.0154  140.4404  168.6407 C.ar    1  UNL1        0.0776
     20 C         139.5543  141.4712  169.6281 C.ar    1  UNL1        0.0178
     21 C         140.5520  142.3739  170.2909 C.ar    1  UNL1        0.0128
     22 C         142.0109  142.2460  169.9664 C.ar    1  UNL1        0.0600
     23 CL        143.0087  143.1488  170.6293 Cl      1  UNL1       -0.0822
     24 C         142.4721  141.2152  168.9791 C.ar    1  UNL1        0.0423
     25 C         141.4743  140.3125  168.3162 C.ar    1  UNL1        0.1543
     26 F         141.9354  139.2816  167.3288 F       1  UNL1       -0.2028
@<TRIPOS>BOND
     1     1     2    1
     2     2     3   ar
     3     3     4   ar
     4     4    17    1
     5    17    19    1
     6    19    20   ar
     7    20    21   ar
     8    21    22   ar
     9    22    23    1
    10    22    24   ar
    11    24    25   ar
    12    25    26    1
    13     4     5   ar
    14     5     6   ar
    15     6     7    1
    16     7     8    2
    17     7     9   am
    18     9    10    1
    19    10    11    1
    20    11    12    1
    21    12    13    1
    22    13    14    1
    23    13    15    1
    24    15    16    1
    25     6     2   ar
    26    15     9    1
    27    25    19   ar
    28    17    18    1
@<TRIPOS>MOLECULE
*****
 26 28 0 0 0
SMALL
GASTEIGER

@<TRIPOS>ATOM
      1 C         140.4858  137.7174  164.9965 C.3     1  UNL1        0.0400
      2 C         141.7854  138.2685  164.4890 C.ar    1  UNL1        0.0323
      3 S         142.2719  138.2154  163.0711 S.2     1  UNL1       -0.0557
      4 C         143.6137  138.8835  163.0161 C.ar    1  UNL1        0.1634
      5 N         143.9566  139.3495  164.4001 N.ar    1  UNL1       -0.2197
      6 C         142.8266  138.9694  165.3104 C.ar    1  UNL1        0.1386
      7 C         142.7511  139.2423  166.7834 C.2     1  UNL1        0.2670
      8 O         143.4296  138.3203  167.7528 O.2     1  UNL1       -0.2682
      9 N         141.9972  140.4371  167.2872 N.am    1  UNL1       -0.2765
     10 C         141.3187  141.3591  166.3179 C.3     1  UNL1        0.0937
     11 C         140.5647  142.5540  166.8215 C.3     1  UNL1        0.0216
     12 C         140.4892  142.8269  168.2946 C.3     1  UNL1        0.0034
     13 C         141.1677  141.9049  169.2639 C.3     1  UNL1        0.0183
     14 C         141.0921  142.1778  170.7370 C.3     1  UNL1        0.0017
     15 C         141.9217  140.7100  168.7602 C.3     1  UNL1        0.0757
     16 C         142.6001  139.7881  169.7295 C.3     1  UNL1        0.0215
     17 N         144.4635  139.0554  161.7921 N.pl3   1  UNL1       -0.2910
     18 H         145.2089  138.4359  161.6193 H       1  UNL1        0.1542
     19 C         144.1777  140.1713  160.8312 C.ar    1  UNL1        0.0776
     20 C         143.5970  139.8687  159.4817 C.ar    1  UNL1        0.0178
     21 C         143.3112  140.9846  158.5210 C.ar    1  UNL1        0.0128
     22 C         143.6060  142.4030  158.9097 C.ar    1  UNL1        0.0600
     23 CL        143.3202  143.5189  157.9489 Cl      1  UNL1       -0.0822
     24 C         144.1867  142.7056  160.2592 C.ar    1  UNL1        0.0423
     25 C         144.4725  141.5897  161.2200 C.ar    1  UNL1        0.1543
     26 F         145.0532  141.8923  162.5696 F       1  UNL1       -0.2028
@<TRIPOS>BOND
     1     1     2    1
     2     2     3   ar
     3     3     4   ar
     4     4    17    1
     5    17    19    1
     6    19    20   ar
     7    20    21   ar
     8    21    22   ar
     9    22    23    1
    10    22    24   ar
    11    24    25   ar
    12    25    26    1
    13     4     5   ar
    14     5     6   ar
    15     6     7    1
    16     7     8    2
    17     7     9   am
    18     9    10    1
    19    10    11    1
    20    11    12    1
    21    12    13    1
    22    13    14    1
    23    13    15    1
    24    15    16    1
    25     6     2   ar
    26    15     9    1
    27    25    19   ar
    28    17    18    1
@<TRIPOS>MOLECULE
*****
 26 28 0 0 0
SMALL
GASTEIGER

@<TRIPOS>ATOM
      1 C         139.6842  146.0598  162.0209 C.3     1  UNL1        0.0400
      2 C         140.9853  145.3171  162.0974 C.ar    1  UNL1        0.0323
      3 S         141.7468  144.9995  163.3501 S.2     1  UNL1       -0.0557
      4 C         142.9854  144.2479  162.9616 C.ar    1  UNL1        0.1634
      5 N         142.9893  144.1009  161.4688 N.ar    1  UNL1       -0.2197
      6 C         141.7532  144.7618  160.9347 C.ar    1  UNL1        0.1386
      7 C         141.3550  144.8515  159.4913 C.2     1  UNL1        0.2670
      8 O         142.0517  145.8177  158.5797 O.2     1  UNL1       -0.2682
      9 N         140.2600  143.9751  158.9595 N.am    1  UNL1       -0.2765
     10 C         139.5633  143.0089  159.8711 C.3     1  UNL1        0.0937
     11 C         138.4683  142.1325  159.3394 C.3     1  UNL1        0.0216
     12 C         138.0700  142.2222  157.8960 C.3     1  UNL1        0.0034
     13 C         138.7668  143.1884  156.9844 C.3     1  UNL1        0.0183
     14 C         138.3685  143.2782  155.5410 C.3     1  UNL1        0.0017
     15 C         139.8618  144.0649  157.5162 C.3     1  UNL1        0.0757
     16 C         140.5585  145.0310  156.6046 C.3     1  UNL1        0.0215
     17 N         144.0355  143.7335  163.9010 N.pl3   1  UNL1       -0.2910
     18 H         144.7906  144.3103  164.1588 H       1  UNL1        0.1542
     19 C         143.9354  142.3402  164.4477 C.ar    1  UNL1        0.0776
     20 C         142.9363  142.0258  165.5214 C.ar    1  UNL1        0.0178
     21 C         142.8361  140.6326  166.0680 C.ar    1  UNL1        0.0128
     22 C         143.7351  139.5537  165.5409 C.ar    1  UNL1        0.0600
     23 CL        143.6349  138.1604  166.0875 Cl      1  UNL1       -0.0822
     24 C         144.7342  139.8680  164.4671 C.ar    1  UNL1        0.0423
     25 C         144.8343  141.2613  163.9205 C.ar    1  UNL1        0.1543
     26 F         145.8334  141.5757  162.8467 F       1  UNL1       -0.2028
@<TRIPOS>BOND
     1     1     2    1
     2     2     3   ar
     3     3     4   ar
     4     4    17    1
     5    17    19    1
     6    19    20   ar
     7    20    21   ar
     8    21    22   ar
     9    22    23    1
    10    22    24   ar
    11    24    25   ar
    12    25    26    1
    13     4     5   ar
    14     5     6   ar
    15     6     7    1
    16     7     8    2
    17     7     9   am
    18     9    10    1
    19    10    11    1
    20    11    12    1
    21    12    13    1
    22    13    14    1
    23    13    15    1
    24    15    16    1
    25     6     2   ar
    26    15     9    1
    27    25    19   ar
    28    17    18    1
@<TRIPOS>MOLECULE
*****
 26 28 0 0 0
SMALL
GASTEIGER

@<TRIPOS>ATOM
      1 C         138.4892  144.9398  165.5531 C.3     1  UNL1        0.0400
      2 C         138.7984  144.2026  164.2839 C.ar    1  UNL1        0.0323
      3 S         137.9775  144.2253  163.0287 S.2     1  UNL1       -0.0557
      4 C         138.6545  143.3500  162.0161 C.ar    1  UNL1        0.1634
      5 N         139.8938  142.7861  162.6456 N.ar    1  UNL1       -0.2197
      6 C         139.9828  143.3130  164.0471 C.ar    1  UNL1        0.1386
      7 C         141.0659  143.0046  165.0379 C.2     1  UNL1        0.2670
      8 O         142.3697  143.7439  164.9782 O.2     1  UNL1       -0.2682
      9 N         140.8453  141.9570  166.0885 N.am    1  UNL1       -0.2765
     10 C         139.5415  141.2177  166.1482 C.3     1  UNL1        0.0937
     11 C         139.3208  140.1700  167.1987 C.3     1  UNL1        0.0216
     12 C         140.4039  139.8616  168.1895 C.3     1  UNL1        0.0034
     13 C         141.7077  140.6009  168.1298 C.3     1  UNL1        0.0183
     14 C         142.7908  140.2925  169.1207 C.3     1  UNL1        0.0017
     15 C         141.9284  141.6486  167.0793 C.3     1  UNL1        0.0757
     16 C         143.2321  142.3878  167.0195 C.3     1  UNL1        0.0215
     17 N         138.1762  143.0849  160.6194 N.pl3   1  UNL1       -0.2910
     18 H         137.5887  143.7339  160.1688 H       1  UNL1        0.1542
     19 C         138.5928  141.8311  159.9091 C.ar    1  UNL1        0.0776
     20 C         139.4077  141.9164  158.6527 C.ar    1  UNL1        0.0178
     21 C         139.8244  140.6626  157.9425 C.ar    1  UNL1        0.0128
     22 C         139.4260  139.3235  158.4888 C.ar    1  UNL1        0.0600
     23 CL        139.8427  138.0697  157.7785 Cl      1  UNL1       -0.0822
     24 C         138.6111  139.2383  159.7452 C.ar    1  UNL1        0.0423
     25 C         138.1945  140.4921  160.4553 C.ar    1  UNL1        0.1543
     26 F         137.3795  140.4069  161.7118 F       1  UNL1       -0.2028
@<TRIPOS>BOND
     1     1     2    1
     2     2     3   ar
     3     3     4   ar
     4     4    17    1
     5    17    19    1
     6    19    20   ar
     7    20    21   ar
     8    21    22   ar
     9    22    23    1
    10    22    24   ar
    11    24    25   ar
    12    25    26    1
    13     4     5   ar
    14     5     6   ar
    15     6     7    1
    16     7     8    2
    17     7     9   am
    18     9    10    1
    19    10    11    1
    20    11    12    1
    21    12    13    1
    22    13    14    1
    23    13    15    1
    24    15    16    1
    25     6     2   ar
    26    15     9    1
    27    25    19   ar
    28    17    18    1
@<TRIPOS>MOLECULE
*****
 26 28 0 0 0
SMALL
GASTEIGER

@<TRIPOS>ATOM
      1 C         141.7739  143.9345  164.3050 C.3     1  UNL1        0.0400
      2 C         142.5864  142.6885  164.1116 C.ar    1  UNL1        0.0323
      3 S         143.2688  142.2689  162.8435 S.2     1  UNL1       -0.0557
      4 C         143.9633  140.9645  163.1006 C.ar    1  UNL1        0.1634
      5 N         143.7101  140.5779  164.5276 N.ar    1  UNL1       -0.2197
      6 C         142.8591  141.6434  165.1525 C.ar    1  UNL1        0.1386
      7 C         142.3673  141.6608  166.5695 C.2     1  UNL1        0.2670
      8 O         143.1346  142.4067  167.6207 O.2     1  UNL1       -0.2682
      9 N         141.1082  140.9324  166.9353 N.am    1  UNL1       -0.2765
     10 C         140.3409  140.1865  165.8841 C.3     1  UNL1        0.0937
     11 C         139.0817  139.4580  166.2499 C.3     1  UNL1        0.0216
     12 C         138.5898  139.4754  167.6668 C.3     1  UNL1        0.0034
     13 C         139.3571  140.2213  168.7180 C.3     1  UNL1        0.0183
     14 C         138.8652  140.2386  170.1350 C.3     1  UNL1        0.0017
     15 C         140.6163  140.9498  168.3523 C.3     1  UNL1        0.0757
     16 C         141.3836  141.6956  169.4034 C.3     1  UNL1        0.0215
     17 N         144.7694  140.1837  162.1053 N.pl3   1  UNL1       -0.2910
     18 H         145.7477  140.1275  162.2000 H       1  UNL1        0.1542
     19 C         144.0849  139.4886  160.9658 C.ar    1  UNL1        0.0776
     20 C         143.6370  138.0650  161.1160 C.ar    1  UNL1        0.0178
     21 C         142.9526  137.3699  159.9766 C.ar    1  UNL1        0.0128
     22 C         142.7161  138.0985  158.6869 C.ar    1  UNL1        0.0600
     23 CL        142.0316  137.4034  157.5474 Cl      1  UNL1       -0.0822
     24 C         143.1640  139.5221  158.5367 C.ar    1  UNL1        0.0423
     25 C         143.8484  140.2172  159.6762 C.ar    1  UNL1        0.1543
     26 F         144.2964  141.6409  159.5260 F       1  UNL1       -0.2028
@<TRIPOS>BOND
     1     1     2    1
     2     2     3   ar
     3     3     4   ar
     4     4    17    1
     5    17    19    1
     6    19    20   ar
     7    20    21   ar
     8    21    22   ar
     9    22    23    1
    10    22    24   ar
    11    24    25   ar
    12    25    26    1
    13     4     5   ar
    14     5     6   ar
    15     6     7    1
    16     7     8    2
    17     7     9   am
    18     9    10    1
    19    10    11    1
    20    11    12    1
    21    12    13    1
    22    13    14    1
    23    13    15    1
    24    15    16    1
    25     6     2   ar
    26    15     9    1
    27    25    19   ar
    28    17    18    1
