@<TRIPOS>MOLECULE
*****
 36 40 0 0 0
SMALL
GASTEIGER

@<TRIPOS>ATOM
      1 C         140.9287  141.7169  168.0705 C.3     1  UNL1        0.0705
      2 C         140.3448  141.8532  169.4455 C.3     1  UNL1        0.0082
      3 C         141.2198  142.2558  170.5953 C.3     1  UNL1        0.0005
      4 C         142.6787  142.5222  170.3703 C.3     1  UNL1        0.0005
      5 C         143.2626  142.3860  168.9953 C.3     1  UNL1        0.0095
      6 C         142.3876  141.9833  167.8455 C.3     1  UNL1        0.0840
      7 C         142.9714  141.8471  166.4705 C.2     1  UNL1        0.2261
      8 O         143.2687  143.0718  165.6572 O.2     1  UNL1       -0.2748
      9 N         143.2580  140.4859  165.9089 N.am    1  UNL1       -0.2814
     10 H         143.0629  139.6821  166.4427 H       1  UNL1        0.1549
     11 C         143.8419  140.3497  164.5339 C.ar    1  UNL1        0.0935
     12 C         144.9782  141.1536  163.9749 C.ar    1  UNL1        0.1364
     13 N         145.2305  140.6863  162.5720 N.ar    1  UNL1       -0.1662
     14 N         144.2501  139.5936  162.2640 N.ar    1  UNL1       -0.2434
     15 C         143.3919  139.3856  163.4765 C.ar    1  UNL1        0.1460
     16 C         142.3115  138.3451  163.4611 C.2     1  UNL1        0.2646
     17 O         141.4533  138.1371  164.6736 O.2     1  UNL1       -0.2685
     18 N         142.0894  137.5127  162.2333 N.am    1  UNL1       -0.2976
     19 C         142.9476  137.7208  161.0208 C.3     1  UNL1        0.1161
     20 C         144.0280  138.7612  161.0361 C.3     1  UNL1        0.1488
     21 H         141.3803  136.8298  162.2232 H       1  UNL1        0.1499
     22 C         140.0537  141.3143  166.9206 C.2     1  UNL1        0.1731
     23 O         139.2190  140.0713  167.0126 O.2     1  UNL1       -0.2913
     24 C         139.9325  143.8354  163.1951 C.ar    1  UNL1        0.0194
     25 C         140.1606  142.3563  163.0927 C.ar    1  UNL1        0.0016
     26 C         140.2010  141.5160  164.3345 C.ar    1  UNL1        0.0029
     27 C         140.0133  142.1546  165.6788 C.ar    1  UNL1        0.0347
     28 C         139.7852  143.6336  165.7811 C.ar    1  UNL1        0.0029
     29 C         139.7448  144.4741  164.5392 C.ar    1  UNL1        0.0016
     30 C         140.7245  145.5509  158.2645 C.3     1  UNL1        0.0515
     31 C         140.2561  145.4643  159.6869 C.ar    1  UNL1        0.0535
     32 C         140.5580  144.3532  160.6484 C.ar    1  UNL1        0.0349
     33 C         139.8921  144.6757  161.9532 C.ar    1  UNL1        0.1018
     34 N         139.1788  145.9860  161.7982 N.ar    1  UNL1       -0.1730
     35 N         139.4038  146.4734  160.3975 N.ar    1  UNL1       -0.2798
     36 H         139.0535  147.3090  160.0122 H       1  UNL1        0.1886
@<TRIPOS>BOND
     1    30    31    1
     2    31    32   ar
     3    32    33   ar
     4    33    24    1
     5    24    25   ar
     6    25    26   ar
     7    26    27   ar
     8    27    22    1
     9    22    23    2
    10     1    22    1
    11     1     2    1
    12     2     3    1
    13     3     4    1
    14     4     5    1
    15     5     6    1
    16     6     7    1
    17     7     8    2
    18     7     9   am
    19     9    11    1
    20    11    12   ar
    21    12    13   ar
    22    13    14   ar
    23    14    15   ar
    24    15    16    1
    25    16    17    2
    26    16    18   am
    27    18    19    1
    28    19    20    1
    29    27    28   ar
    30    28    29   ar
    31    33    34   ar
    32    34    35   ar
    33    35    31   ar
    34    29    24   ar
    35     6     1    1
    36    15    11   ar
    37    20    14    1
    38     9    10    1
    39    18    21    1
    40    35    36    1
@<TRIPOS>MOLECULE
*****
 36 40 0 0 0
SMALL
GASTEIGER

@<TRIPOS>ATOM
      1 C         140.8932  141.4502  168.0271 C.3     1  UNL1        0.0705
      2 C         140.8491  141.9808  169.4294 C.3     1  UNL1        0.0082
      3 C         139.8072  141.4835  170.3870 C.3     1  UNL1        0.0005
      4 C         138.8093  140.4556  169.9424 C.3     1  UNL1        0.0005
      5 C         138.8534  139.9250  168.5401 C.3     1  UNL1        0.0095
      6 C         139.8954  140.4223  167.5825 C.3     1  UNL1        0.0840
      7 C         139.9395  139.8917  166.1801 C.2     1  UNL1        0.2261
      8 O         138.8906  140.3023  165.1896 O.2     1  UNL1       -0.2748
      9 N         141.0326  138.9505  165.7684 N.am    1  UNL1       -0.2814
     10 H         141.7210  138.6810  166.4185 H       1  UNL1        0.1549
     11 C         141.0767  138.4199  164.3660 C.ar    1  UNL1        0.0935
     12 C         139.9489  137.7454  163.6427 C.ar    1  UNL1        0.1364
     13 N         140.4316  137.3793  162.2705 N.ar    1  UNL1       -0.1662
     14 N         141.8576  137.8276  162.1457 N.ar    1  UNL1       -0.2434
     15 C         142.2563  138.4707  163.4409 C.ar    1  UNL1        0.1460
     16 C         143.6419  139.0195  163.6104 C.2     1  UNL1        0.2646
     17 O         144.0406  139.6626  164.9056 O.2     1  UNL1       -0.2685
     18 N         144.6289  138.9251  162.4849 N.am    1  UNL1       -0.2976
     19 C         144.2302  138.2820  161.1897 C.3     1  UNL1        0.1161
     20 C         142.8446  137.7332  161.0201 C.3     1  UNL1        0.1488
     21 H         145.5384  139.2853  162.5962 H       1  UNL1        0.1499
     22 C         141.9352  141.9474  167.0695 C.2     1  UNL1        0.1731
     23 O         143.3879  141.6929  167.3431 O.2     1  UNL1       -0.2913
     24 C         140.7030  144.2029  163.3756 C.ar    1  UNL1        0.0194
     25 C         139.7993  144.1730  164.5725 C.ar    1  UNL1        0.0016
     26 C         140.2100  143.4212  165.8037 C.ar    1  UNL1        0.0029
     27 C         141.5244  142.6993  165.8382 C.ar    1  UNL1        0.0347
     28 C         142.4281  142.7292  164.6413 C.ar    1  UNL1        0.0029
     29 C         142.0174  143.4810  163.4100 C.ar    1  UNL1        0.0016
     30 C         140.2028  145.6939  158.3350 C.3     1  UNL1        0.0515
     31 C         140.0623  145.6401  159.8274 C.ar    1  UNL1        0.0535
     32 C         140.7015  144.6335  160.7375 C.ar    1  UNL1        0.0349
     33 C         140.2922  144.9548  162.1443 C.ar    1  UNL1        0.1018
     34 N         139.4000  146.1599  162.1038 N.ar    1  UNL1       -0.1730
     35 N         139.2579  146.5835  160.6718 N.ar    1  UNL1       -0.2798
     36 H         138.7294  147.3466  160.3438 H       1  UNL1        0.1886
@<TRIPOS>BOND
     1    30    31    1
     2    31    32   ar
     3    32    33   ar
     4    33    24    1
     5    24    25   ar
     6    25    26   ar
     7    26    27   ar
     8    27    22    1
     9    22    23    2
    10     1    22    1
    11     1     2    1
    12     2     3    1
    13     3     4    1
    14     4     5    1
    15     5     6    1
    16     6     7    1
    17     7     8    2
    18     7     9   am
    19     9    11    1
    20    11    12   ar
    21    12    13   ar
    22    13    14   ar
    23    14    15   ar
    24    15    16    1
    25    16    17    2
    26    16    18   am
    27    18    19    1
    28    19    20    1
    29    27    28   ar
    30    28    29   ar
    31    33    34   ar
    32    34    35   ar
    33    35    31   ar
    34    29    24   ar
    35     6     1    1
    36    15    11   ar
    37    20    14    1
    38     9    10    1
    39    18    21    1
    40    35    36    1
@<TRIPOS>MOLECULE
*****
 36 40 0 0 0
SMALL
GASTEIGER

@<TRIPOS>ATOM
      1 C         140.1432  139.9046  167.6263 C.3     1  UNL1        0.0705
      2 C         139.7465  140.1356  169.0543 C.3     1  UNL1        0.0082
      3 C         140.7776  140.0584  170.1410 C.3     1  UNL1        0.0005
      4 C         142.2054  139.7503  169.7997 C.3     1  UNL1        0.0005
      5 C         142.6020  139.5193  168.3716 C.3     1  UNL1        0.0095
      6 C         141.5709  139.5965  167.2850 C.3     1  UNL1        0.0840
      7 C         141.9676  139.3655  165.8569 C.2     1  UNL1        0.2261
      8 O         141.5172  138.1245  165.1448 O.2     1  UNL1       -0.2748
      9 N         142.8146  140.3755  165.1410 N.am    1  UNL1       -0.2814
     10 H         143.1102  141.1900  165.6084 H       1  UNL1        0.1549
     11 C         143.2113  140.1445  163.7129 C.ar    1  UNL1        0.0935
     12 C         143.4257  138.8101  163.0622 C.ar    1  UNL1        0.1364
     13 N         143.8100  139.0484  161.6320 N.ar    1  UNL1       -0.1662
     14 N         143.8332  140.5299  161.3988 N.ar    1  UNL1       -0.2434
     15 C         143.4631  141.2074  162.6849 C.ar    1  UNL1        0.1460
     16 C         143.4032  142.7046  162.7537 C.2     1  UNL1        0.2646
     17 O         143.0332  143.3821  164.0398 O.2     1  UNL1       -0.2685
     18 N         143.7135  143.5243  161.5365 N.am    1  UNL1       -0.2976
     19 C         144.0835  142.8468  160.2504 C.3     1  UNL1        0.1161
     20 C         144.1434  141.3496  160.1815 C.3     1  UNL1        0.1488
     21 H         143.6742  144.5070  161.5816 H       1  UNL1        0.1499
     22 C         139.1121  139.9818  166.5396 C.2     1  UNL1        0.1731
     23 O         137.9562  139.0258  166.5331 O.2     1  UNL1       -0.2913
     24 C         139.4863  143.0816  163.2990 C.ar    1  UNL1        0.0194
     25 C         139.1140  141.6715  162.9486 C.ar    1  UNL1        0.0016
     26 C         138.9892  140.6382  164.0287 C.ar    1  UNL1        0.0029
     27 C         139.2368  141.0150  165.4594 C.ar    1  UNL1        0.0347
     28 C         139.6092  142.4252  165.8098 C.ar    1  UNL1        0.0029
     29 C         139.7340  143.4586  164.7296 C.ar    1  UNL1        0.0016
     30 C         140.7834  145.4984  158.7871 C.3     1  UNL1        0.0515
     31 C         140.2073  145.2257  160.1449 C.ar    1  UNL1        0.0535
     32 C         140.3385  143.9469  160.9178 C.ar    1  UNL1        0.0349
     33 C         139.6111  144.1148  162.2188 C.ar    1  UNL1        0.1018
     34 N         139.0302  145.4975  162.2500 N.ar    1  UNL1       -0.1730
     35 N         139.3987  146.1841  160.9682 N.ar    1  UNL1       -0.2798
     36 H         139.1530  147.1024  160.7122 H       1  UNL1        0.1886
@<TRIPOS>BOND
     1    30    31    1
     2    31    32   ar
     3    32    33   ar
     4    33    24    1
     5    24    25   ar
     6    25    26   ar
     7    26    27   ar
     8    27    22    1
     9    22    23    2
    10     1    22    1
    11     1     2    1
    12     2     3    1
    13     3     4    1
    14     4     5    1
    15     5     6    1
    16     6     7    1
    17     7     8    2
    18     7     9   am
    19     9    11    1
    20    11    12   ar
    21    12    13   ar
    22    13    14   ar
    23    14    15   ar
    24    15    16    1
    25    16    17    2
    26    16    18   am
    27    18    19    1
    28    19    20    1
    29    27    28   ar
    30    28    29   ar
    31    33    34   ar
    32    34    35   ar
    33    35    31   ar
    34    29    24   ar
    35     6     1    1
    36    15    11   ar
    37    20    14    1
    38     9    10    1
    39    18    21    1
    40    35    36    1
@<TRIPOS>MOLECULE
*****
 36 40 0 0 0
SMALL
GASTEIGER

@<TRIPOS>ATOM
      1 C         142.2394  141.4861  167.8480 C.3     1  UNL1        0.0705
      2 C         142.9823  141.5714  169.1483 C.3     1  UNL1        0.0082
      3 C         142.5144  142.5118  170.2192 C.3     1  UNL1        0.0005
      4 C         141.3036  143.3669  169.9898 C.3     1  UNL1        0.0005
      5 C         140.5607  143.2816  168.6894 C.3     1  UNL1        0.0095
      6 C         141.0286  142.3412  167.6186 C.3     1  UNL1        0.0840
      7 C         140.2858  142.2560  166.3182 C.2     1  UNL1        0.2261
      8 O         140.5236  143.2817  165.2499 O.2     1  UNL1       -0.2748
      9 N         139.3050  141.1449  166.0862 N.am    1  UNL1       -0.2814
     10 H         139.1489  140.4716  166.7874 H       1  UNL1        0.1549
     11 C         138.5621  141.0596  164.7859 C.ar    1  UNL1        0.0935
     12 C         137.7423  142.1518  164.1656 C.ar    1  UNL1        0.1364
     13 N         137.1822  141.6343  162.8739 N.ar    1  UNL1       -0.1662
     14 N         137.6559  140.2223  162.6959 N.ar    1  UNL1       -0.2434
     15 C         138.5088  139.8670  163.8776 C.ar    1  UNL1        0.1460
     16 C         139.1266  138.5036  163.9738 C.2     1  UNL1        0.2646
     17 O         139.9794  138.1484  165.1555 O.2     1  UNL1       -0.2685
     18 N         138.8915  137.4954  162.8884 N.am    1  UNL1       -0.2976
     19 C         138.0386  137.8506  161.7067 C.3     1  UNL1        0.1161
     20 C         137.4208  139.2140  161.6105 C.3     1  UNL1        0.1488
     21 H         139.2970  136.6005  162.9516 H       1  UNL1        0.1499
     22 C         142.7074  140.5458  166.7772 C.2     1  UNL1        0.1731
     23 O         142.9836  139.1092  167.1088 O.2     1  UNL1       -0.2913
     24 C         143.2824  142.0343  162.5695 C.ar    1  UNL1        0.0194
     25 C         143.9612  142.7315  163.7111 C.ar    1  UNL1        0.0016
     26 C         143.7696  142.2353  165.1136 C.ar    1  UNL1        0.0029
     27 C         142.8991  141.0419  165.3747 C.ar    1  UNL1        0.0347
     28 C         142.2203  140.3447  164.2331 C.ar    1  UNL1        0.0029
     29 C         142.4119  140.8409  162.8305 C.ar    1  UNL1        0.0016
     30 C         144.9497  142.4616  157.5777 C.3     1  UNL1        0.0515
     31 C         144.2405  142.7269  158.8726 C.ar    1  UNL1        0.0535
     32 C         144.3495  141.9044  160.1222 C.ar    1  UNL1        0.0349
     33 C         143.4741  142.5304  161.1670 C.ar    1  UNL1        0.1018
     34 N         142.8240  143.7399  160.5632 N.ar    1  UNL1       -0.1730
     35 N         143.2977  143.8613  159.1450 N.ar    1  UNL1       -0.2798
     36 H         143.0357  144.5624  158.5054 H       1  UNL1        0.1886
@<TRIPOS>BOND
     1    30    31    1
     2    31    32   ar
     3    32    33   ar
     4    33    24    1
     5    24    25   ar
     6    25    26   ar
     7    26    27   ar
     8    27    22    1
     9    22    23    2
    10     1    22    1
    11     1     2    1
    12     2     3    1
    13     3     4    1
    14     4     5    1
    15     5     6    1
    16     6     7    1
    17     7     8    2
    18     7     9   am
    19     9    11    1
    20    11    12   ar
    21    12    13   ar
    22    13    14   ar
    23    14    15   ar
    24    15    16    1
    25    16    17    2
    26    16    18   am
    27    18    19    1
    28    19    20    1
    29    27    28   ar
    30    28    29   ar
    31    33    34   ar
    32    34    35   ar
    33    35    31   ar
    34    29    24   ar
    35     6     1    1
    36    15    11   ar
    37    20    14    1
    38     9    10    1
    39    18    21    1
    40    35    36    1
@<TRIPOS>MOLECULE
*****
 36 40 0 0 0
SMALL
GASTEIGER

@<TRIPOS>ATOM
      1 C         142.1070  141.2034  168.4564 C.3     1  UNL1        0.0705
      2 C         142.7636  140.8457  169.7568 C.3     1  UNL1        0.0082
      3 C         141.9327  140.3634  170.9088 C.3     1  UNL1        0.0005
      4 C         140.4453  140.2387  170.7604 C.3     1  UNL1        0.0005
      5 C         139.7888  140.5963  169.4600 C.3     1  UNL1        0.0095
      6 C         140.6196  141.0787  168.3081 C.3     1  UNL1        0.0840
      7 C         139.9631  141.4364  167.0077 C.2     1  UNL1        0.2261
      8 O         139.9593  142.8603  166.5361 O.2     1  UNL1       -0.2748
      9 N         139.3102  140.3700  166.1788 N.am    1  UNL1       -0.2814
     10 H         139.3127  139.4355  166.4884 H       1  UNL1        0.1549
     11 C         138.6536  140.7277  164.8785 C.ar    1  UNL1        0.0935
     12 C         138.0170  142.0443  164.5450 C.ar    1  UNL1        0.1364
     13 N         137.4884  141.9618  163.1437 N.ar    1  UNL1       -0.1662
     14 N         137.7983  140.5943  162.6111 N.ar    1  UNL1       -0.2434
     15 C         138.5185  139.8315  163.6832 C.ar    1  UNL1        0.1460
     16 C         138.9582  138.4195  163.4326 C.2     1  UNL1        0.2646
     17 O         139.6784  137.6568  164.5048 O.2     1  UNL1       -0.2685
     18 N         138.6777  137.7702  162.1099 N.am    1  UNL1       -0.2976
     19 C         137.9575  138.5330  161.0377 C.3     1  UNL1        0.1161
     20 C         137.5178  139.9450  161.2883 C.3     1  UNL1        0.1488
     21 H         138.9663  136.8435  161.9454 H       1  UNL1        0.1499
     22 C         142.9379  141.6858  167.3045 C.2     1  UNL1        0.1731
     23 O         143.8239  142.8849  167.4690 O.2     1  UNL1       -0.2913
     24 C         142.7722  139.5356  163.3548 C.ar    1  UNL1        0.0194
     25 C         142.9006  138.7547  164.6291 C.ar    1  UNL1        0.0016
     26 C         142.9558  139.4713  165.9456 C.ar    1  UNL1        0.0029
     27 C         142.8827  140.9690  165.9880 C.ar    1  UNL1        0.0347
     28 C         142.7543  141.7499  164.7137 C.ar    1  UNL1        0.0029
     29 C         142.6990  141.0332  163.3971 C.ar    1  UNL1        0.0016
     30 C         141.4082  138.1463  158.4467 C.3     1  UNL1        0.0515
     31 C         142.0901  138.1802  159.7823 C.ar    1  UNL1        0.0535
     32 C         141.8075  139.1490  160.8921 C.ar    1  UNL1        0.0349
     33 C         142.7170  138.8188  162.0383 C.ar    1  UNL1        0.1018
     34 N         143.5617  137.6460  161.6369 N.ar    1  UNL1       -0.1730
     35 N         143.1742  137.2513  160.2426 N.ar    1  UNL1       -0.2798
     36 H         143.5631  136.5124  159.7211 H       1  UNL1        0.1886
@<TRIPOS>BOND
     1    30    31    1
     2    31    32   ar
     3    32    33   ar
     4    33    24    1
     5    24    25   ar
     6    25    26   ar
     7    26    27   ar
     8    27    22    1
     9    22    23    2
    10     1    22    1
    11     1     2    1
    12     2     3    1
    13     3     4    1
    14     4     5    1
    15     5     6    1
    16     6     7    1
    17     7     8    2
    18     7     9   am
    19     9    11    1
    20    11    12   ar
    21    12    13   ar
    22    13    14   ar
    23    14    15   ar
    24    15    16    1
    25    16    17    2
    26    16    18   am
    27    18    19    1
    28    19    20    1
    29    27    28   ar
    30    28    29   ar
    31    33    34   ar
    32    34    35   ar
    33    35    31   ar
    34    29    24   ar
    35     6     1    1
    36    15    11   ar
    37    20    14    1
    38     9    10    1
    39    18    21    1
    40    35    36    1
@<TRIPOS>MOLECULE
*****
 36 40 0 0 0
SMALL
GASTEIGER

@<TRIPOS>ATOM
      1 C         142.2320  141.6163  168.1624 C.3     1  UNL1        0.0705
      2 C         143.0528  142.0172  169.3523 C.3     1  UNL1        0.0082
      3 C         142.5338  143.0506  170.3076 C.3     1  UNL1        0.0005
      4 C         141.1941  143.6832  170.0733 C.3     1  UNL1        0.0005
      5 C         140.3733  143.2823  168.8835 C.3     1  UNL1        0.0095
      6 C         140.8923  142.2489  167.9281 C.3     1  UNL1        0.0840
      7 C         140.0715  141.8480  166.7383 C.2     1  UNL1        0.2261
      8 O         139.5124  140.4592  166.6464 O.2     1  UNL1       -0.2748
      9 N         139.8098  142.8361  165.6403 N.am    1  UNL1       -0.2814
     10 H         140.1768  143.7476  165.7006 H       1  UNL1        0.1549
     11 C         138.9891  142.4352  164.4505 C.ar    1  UNL1        0.0935
     12 C         137.7601  141.5755  164.4764 C.ar    1  UNL1        0.1364
     13 N         137.2647  141.4327  163.0678 N.ar    1  UNL1       -0.1662
     14 N         138.1874  142.2041  162.1714 N.ar    1  UNL1       -0.2434
     15 C         139.2531  142.8237  163.0260 C.ar    1  UNL1        0.1460
     16 C         140.3263  143.6616  162.3966 C.2     1  UNL1        0.2646
     17 O         141.3921  144.2812  163.2511 O.2     1  UNL1       -0.2685
     18 N         140.3338  143.8798  160.9126 N.am    1  UNL1       -0.2976
     19 C         139.2681  143.2602  160.0580 C.3     1  UNL1        0.1161
     20 C         138.1949  142.4224  160.6874 C.3     1  UNL1        0.1488
     21 H         141.0382  144.4298  160.4995 H       1  UNL1        0.1499
     22 C         142.7509  140.5829  167.2071 C.2     1  UNL1        0.1731
     23 O         143.0414  139.1930  167.6907 O.2     1  UNL1       -0.2913
     24 C         143.4364  141.6523  162.8900 C.ar    1  UNL1        0.0194
     25 C         144.0424  142.4911  163.9758 C.ar    1  UNL1        0.0016
     26 C         143.8140  142.1347  165.4148 C.ar    1  UNL1        0.0029
     27 C         142.9794  140.9394  165.7681 C.ar    1  UNL1        0.0347
     28 C         142.3734  140.1006  164.6823 C.ar    1  UNL1        0.0029
     29 C         142.6018  140.4570  163.2432 C.ar    1  UNL1        0.0016
     30 C         144.5215  141.2817  157.7358 C.3     1  UNL1        0.0515
     31 C         144.1636  141.8385  159.0819 C.ar    1  UNL1        0.0535
     32 C         144.0373  141.0550  160.3548 C.ar    1  UNL1        0.0349
     33 C         143.6649  142.0088  161.4510 C.ar    1  UNL1        0.1018
     34 N         143.5611  143.3816  160.8556 N.ar    1  UNL1       -0.1730
     35 N         143.8693  143.2764  159.3914 N.ar    1  UNL1       -0.2798
     36 H         143.8771  144.0204  158.7467 H       1  UNL1        0.1886
@<TRIPOS>BOND
     1    30    31    1
     2    31    32   ar
     3    32    33   ar
     4    33    24    1
     5    24    25   ar
     6    25    26   ar
     7    26    27   ar
     8    27    22    1
     9    22    23    2
    10     1    22    1
    11     1     2    1
    12     2     3    1
    13     3     4    1
    14     4     5    1
    15     5     6    1
    16     6     7    1
    17     7     8    2
    18     7     9   am
    19     9    11    1
    20    11    12   ar
    21    12    13   ar
    22    13    14   ar
    23    14    15   ar
    24    15    16    1
    25    16    17    2
    26    16    18   am
    27    18    19    1
    28    19    20    1
    29    27    28   ar
    30    28    29   ar
    31    33    34   ar
    32    34    35   ar
    33    35    31   ar
    34    29    24   ar
    35     6     1    1
    36    15    11   ar
    37    20    14    1
    38     9    10    1
    39    18    21    1
    40    35    36    1
@<TRIPOS>MOLECULE
*****
 36 40 0 0 0
SMALL
GASTEIGER

@<TRIPOS>ATOM
      1 C         140.1791  139.9594  167.4254 C.3     1  UNL1        0.0705
      2 C         139.8197  139.9800  168.8815 C.3     1  UNL1        0.0082
      3 C         140.8901  139.8226  169.9205 C.3     1  UNL1        0.0005
      4 C         142.3198  139.6445  169.5034 C.3     1  UNL1        0.0005
      5 C         142.6792  139.6238  168.0472 C.3     1  UNL1        0.0095
      6 C         141.6088  139.7813  167.0083 C.3     1  UNL1        0.0840
      7 C         141.9682  139.7606  165.5521 C.2     1  UNL1        0.2261
      8 O         142.4781  141.0050  164.8877 O.2     1  UNL1       -0.2748
      9 N         141.8177  138.4954  164.7603 N.am    1  UNL1       -0.2814
     10 H         141.4831  137.6787  165.1964 H       1  UNL1        0.1549
     11 C         142.1771  138.4748  163.3041 C.ar    1  UNL1        0.0935
     12 C         143.5513  138.6613  162.7324 C.ar    1  UNL1        0.1364
     13 N         143.4488  138.5658  161.2390 N.ar    1  UNL1       -0.1662
     14 N         142.0113  138.3202  160.8877 N.ar    1  UNL1       -0.2434
     15 C         141.2254  138.2639  162.1640 C.ar    1  UNL1        0.1460
     16 C         139.7447  138.0280  162.1233 C.2     1  UNL1        0.2646
     17 O         138.9587  137.9717  163.3996 O.2     1  UNL1       -0.2685
     18 N         139.0499  137.8483  160.8061 N.am    1  UNL1       -0.2976
     19 C         139.8358  137.9046  159.5297 C.3     1  UNL1        0.1161
     20 C         141.3166  138.1405  159.5705 C.3     1  UNL1        0.1488
     21 H         138.0780  137.6934  160.7793 H       1  UNL1        0.1499
     22 C         139.1087  140.1168  166.3864 C.2     1  UNL1        0.1731
     23 O         137.9068  139.2195  166.4058 O.2     1  UNL1       -0.2913
     24 C         139.5033  143.2810  163.2111 C.ar    1  UNL1        0.0194
     25 C         139.0857  141.8900  162.8360 C.ar    1  UNL1        0.0016
     26 C         138.9541  140.8353  163.8943 C.ar    1  UNL1        0.0029
     27 C         139.2402  141.1715  165.3279 C.ar    1  UNL1        0.0347
     28 C         139.6579  142.5624  165.7030 C.ar    1  UNL1        0.0029
     29 C         139.7895  143.6173  164.6446 C.ar    1  UNL1        0.0016
     30 C         140.8619  145.8013  158.7745 C.3     1  UNL1        0.0515
     31 C         140.2593  145.4941  160.1134 C.ar    1  UNL1        0.0535
     32 C         140.3951  144.2039  160.8663 C.ar    1  UNL1        0.0349
     33 C         139.6349  144.3357  162.1526 C.ar    1  UNL1        0.1018
     34 N         139.0293  145.7073  162.1947 N.ar    1  UNL1       -0.1730
     35 N         139.4152  146.4233  160.9344 N.ar    1  UNL1       -0.2798
     36 H         139.1594  147.3418  160.6891 H       1  UNL1        0.1886
@<TRIPOS>BOND
     1    30    31    1
     2    31    32   ar
     3    32    33   ar
     4    33    24    1
     5    24    25   ar
     6    25    26   ar
     7    26    27   ar
     8    27    22    1
     9    22    23    2
    10     1    22    1
    11     1     2    1
    12     2     3    1
    13     3     4    1
    14     4     5    1
    15     5     6    1
    16     6     7    1
    17     7     8    2
    18     7     9   am
    19     9    11    1
    20    11    12   ar
    21    12    13   ar
    22    13    14   ar
    23    14    15   ar
    24    15    16    1
    25    16    17    2
    26    16    18   am
    27    18    19    1
    28    19    20    1
    29    27    28   ar
    30    28    29   ar
    31    33    34   ar
    32    34    35   ar
    33    35    31   ar
    34    29    24   ar
    35     6     1    1
    36    15    11   ar
    37    20    14    1
    38     9    10    1
    39    18    21    1
    40    35    36    1
@<TRIPOS>MOLECULE
*****
 36 40 0 0 0
SMALL
GASTEIGER

@<TRIPOS>ATOM
      1 C         138.8657  143.4435  162.4172 C.3     1  UNL1        0.0705
      2 C         138.5486  144.8441  162.8505 C.3     1  UNL1        0.0082
      3 C         139.2102  146.0070  162.1723 C.3     1  UNL1        0.0005
      4 C         140.1889  145.7694  161.0607 C.3     1  UNL1        0.0005
      5 C         140.5060  144.3688  160.6274 C.3     1  UNL1        0.0095
      6 C         139.8444  143.2059  161.3056 C.3     1  UNL1        0.0840
      7 C         140.1615  141.8053  160.8723 C.2     1  UNL1        0.2261
      8 O         139.1471  141.0096  160.1055 O.2     1  UNL1       -0.2748
      9 N         141.4931  141.2004  161.2057 N.am    1  UNL1       -0.2814
     10 H         142.1589  141.7226  161.7090 H       1  UNL1        0.1549
     11 C         141.8102  139.7998  160.7724 C.ar    1  UNL1        0.0935
     12 C         141.8330  138.5875  161.6554 C.ar    1  UNL1        0.1364
     13 N         142.1971  137.4041  160.8087 N.ar    1  UNL1       -0.1662
     14 N         142.3993  137.8850  159.4023 N.ar    1  UNL1       -0.2434
     15 C         142.1602  139.3656  159.3799 C.ar    1  UNL1        0.1460
     16 C         142.2920  140.1272  158.0944 C.2     1  UNL1        0.2646
     17 O         142.0529  141.6079  158.0720 O.2     1  UNL1       -0.2685
     18 N         142.6630  139.4082  156.8314 N.am    1  UNL1       -0.2976
     19 C         142.9021  137.9276  156.8538 C.3     1  UNL1        0.1161
     20 C         142.7702  137.1659  158.1393 C.3     1  UNL1        0.1488
     21 H         142.7495  139.9081  155.9876 H       1  UNL1        0.1499
     22 C         138.2041  142.2807  163.0954 C.2     1  UNL1        0.1731
     23 O         136.9915  141.6454  162.4821 O.2     1  UNL1       -0.2913
     24 C         139.8571  140.6979  166.9700 C.ar    1  UNL1        0.0194
     25 C         138.9746  139.8313  166.1214 C.ar    1  UNL1        0.0016
     26 C         138.4236  140.3588  164.8299 C.ar    1  UNL1        0.0029
     27 C         138.7551  141.7531  164.3869 C.ar    1  UNL1        0.0347
     28 C         139.6375  142.6197  165.2355 C.ar    1  UNL1        0.0029
     29 C         140.1885  142.0922  166.5271 C.ar    1  UNL1        0.0016
     30 C         143.1570  138.7210  170.5871 C.3     1  UNL1        0.0515
     31 C         141.9248  139.2616  169.9242 C.ar    1  UNL1        0.0535
     32 C         141.8143  139.7036  168.4950 C.ar    1  UNL1        0.0349
     33 C         140.4080  140.1703  168.2616 C.ar    1  UNL1        0.1018
     34 N         139.6494  140.0168  169.5464 N.ar    1  UNL1       -0.1730
     35 N         140.5868  139.4552  170.5740 N.ar    1  UNL1       -0.2798
     36 H         140.3632  139.2497  171.5105 H       1  UNL1        0.1886
@<TRIPOS>BOND
     1    30    31    1
     2    31    32   ar
     3    32    33   ar
     4    33    24    1
     5    24    25   ar
     6    25    26   ar
     7    26    27   ar
     8    27    22    1
     9    22    23    2
    10     1    22    1
    11     1     2    1
    12     2     3    1
    13     3     4    1
    14     4     5    1
    15     5     6    1
    16     6     7    1
    17     7     8    2
    18     7     9   am
    19     9    11    1
    20    11    12   ar
    21    12    13   ar
    22    13    14   ar
    23    14    15   ar
    24    15    16    1
    25    16    17    2
    26    16    18   am
    27    18    19    1
    28    19    20    1
    29    27    28   ar
    30    28    29   ar
    31    33    34   ar
    32    34    35   ar
    33    35    31   ar
    34    29    24   ar
    35     6     1    1
    36    15    11   ar
    37    20    14    1
    38     9    10    1
    39    18    21    1
    40    35    36    1
@<TRIPOS>MOLECULE
*****
 36 40 0 0 0
SMALL
GASTEIGER

@<TRIPOS>ATOM
      1 C         139.8399  139.0735  158.9368 C.3     1  UNL1        0.0705
      2 C         139.7946  138.0555  157.8361 C.3     1  UNL1        0.0082
      3 C         141.0521  137.6796  157.1099 C.3     1  UNL1        0.0005
      4 C         142.3549  138.3217  157.4844 C.3     1  UNL1        0.0005
      5 C         142.4002  139.3397  158.5851 C.3     1  UNL1        0.0095
      6 C         141.1427  139.7156  159.3113 C.3     1  UNL1        0.0840
      7 C         141.1880  140.7336  160.4120 C.2     1  UNL1        0.2261
      8 O         141.6869  140.3456  161.7724 O.2     1  UNL1       -0.2748
      9 N         140.7344  142.1397  160.1524 N.am    1  UNL1       -0.2814
     10 H         140.4069  142.3943  159.2596 H       1  UNL1        0.1549
     11 C         140.7797  143.1577  161.2531 C.ar    1  UNL1        0.0935
     12 C         139.5934  143.7736  161.9338 C.ar    1  UNL1        0.1364
     13 N         140.0998  144.7351  162.9678 N.ar    1  UNL1       -0.1662
     14 N         141.5991  144.7134  162.9261 N.ar    1  UNL1       -0.2434
     15 C         142.0193  143.7385  161.8664 C.ar    1  UNL1        0.1460
     16 C         143.4763  143.5055  161.5968 C.2     1  UNL1        0.2646
     17 O         143.8965  142.5307  160.5371 O.2     1  UNL1       -0.2685
     18 N         144.5132  144.2475  162.3870 N.am    1  UNL1       -0.2976
     19 C         144.0930  145.2224  163.4467 C.3     1  UNL1        0.1161
     20 C         142.6359  145.4553  163.7163 C.3     1  UNL1        0.1488
     21 H         145.4695  144.0947  162.2100 H       1  UNL1        0.1499
     22 C         138.5824  139.4493  159.6630 C.2     1  UNL1        0.1731
     23 O         137.3699  139.8779  158.8908 O.2     1  UNL1       -0.2913
     24 C         138.4472  139.2914  164.1583 C.ar    1  UNL1        0.0194
     25 C         138.9982  138.1314  163.3833 C.ar    1  UNL1        0.0016
     26 C         139.0433  138.1839  161.8849 C.ar    1  UNL1        0.0029
     27 C         138.5373  139.3967  161.1614 C.ar    1  UNL1        0.0347
     28 C         137.9863  140.5567  161.9364 C.ar    1  UNL1        0.0029
     29 C         137.9412  140.5042  163.4349 C.ar    1  UNL1        0.0016
     30 C         139.4326  140.2836  169.2500 C.3     1  UNL1        0.0515
     31 C         138.8551  139.6948  167.9970 C.ar    1  UNL1        0.0535
     32 C         139.2207  140.0769  166.5934 C.ar    1  UNL1        0.0349
     33 C         138.4021  139.2388  165.6566 C.ar    1  UNL1        0.1018
     34 N         137.5306  138.3387  166.4814 N.ar    1  UNL1       -0.1730
     35 N         137.8105  138.6205  167.9279 N.ar    1  UNL1       -0.2798
     36 H         137.3836  138.1781  168.6968 H       1  UNL1        0.1886
@<TRIPOS>BOND
     1    30    31    1
     2    31    32   ar
     3    32    33   ar
     4    33    24    1
     5    24    25   ar
     6    25    26   ar
     7    26    27   ar
     8    27    22    1
     9    22    23    2
    10     1    22    1
    11     1     2    1
    12     2     3    1
    13     3     4    1
    14     4     5    1
    15     5     6    1
    16     6     7    1
    17     7     8    2
    18     7     9   am
    19     9    11    1
    20    11    12   ar
    21    12    13   ar
    22    13    14   ar
    23    14    15   ar
    24    15    16    1
    25    16    17    2
    26    16    18   am
    27    18    19    1
    28    19    20    1
    29    27    28   ar
    30    28    29   ar
    31    33    34   ar
    32    34    35   ar
    33    35    31   ar
    34    29    24   ar
    35     6     1    1
    36    15    11   ar
    37    20    14    1
    38     9    10    1
    39    18    21    1
    40    35    36    1
