@<TRIPOS>MOLECULE
*****
 43 46 0 0 0
SMALL
GASTEIGER

@<TRIPOS>ATOM
      1 C         141.8239  140.9970  162.4137 C.3     1  UNL1        0.0798
      2 C         141.6265  140.7568  163.8812 C.ar    1  UNL1        0.0374
      3 C         141.3087  141.9046  164.7930 C.ar    1  UNL1        0.0023
      4 C         141.1113  141.6645  166.2604 C.ar    1  UNL1        0.0183
      5 C         140.7935  142.8123  167.1722 C.ar    1  UNL1        0.0118
      6 C         140.5961  142.5721  168.6396 C.ar    1  UNL1        0.0685
      7 C         140.7166  141.1840  169.1952 C.ar    1  UNL1        0.0118
      8 C         141.0344  140.0362  168.2834 C.ar    1  UNL1        0.0199
      9 C         141.2317  140.2763  166.8160 C.ar    1  UNL1        0.0844
     10 N         141.5495  139.1285  165.9042 N.ar    1  UNL1       -0.2119
     11 C         141.7469  139.3687  164.4367 C.ar    1  UNL1        0.2211
     12 C         140.2784  143.7200  169.5514 C.1     1  UNL1        0.1004
     13 N         139.9606  144.8679  170.4632 N.1     1  UNL1       -0.1908
     14 O         142.0647  138.2208  163.5249 O.3     1  UNL1       -0.4563
     15 C         141.0510  137.1380  163.3010 C.3     1  UNL1        0.2542
     16 C         141.0186  140.2236  161.4121 C.ar    1  UNL1        0.0115
     17 C         141.7118  139.4221  160.3505 C.ar    1  UNL1       -0.0017
     18 C         140.9065  138.6486  159.3488 C.ar    1  UNL1       -0.0005
     19 C         139.4080  138.6766  159.4088 C.ar    1  UNL1       -0.0021
     20 C         138.7147  139.4781  160.4705 C.ar    1  UNL1        0.0053
     21 C         137.2162  139.5061  160.5306 C.3     1  UNL1        0.0334
     22 C         139.5200  140.2516  161.4721 C.ar    1  UNL1        0.1325
     23 F         138.8268  141.0530  162.5337 F       1  UNL1       -0.2048
     24 C         142.8266  142.0107  161.9479 C.3     1  UNL1        0.1162
     25 O         143.9240  141.2270  162.6047 O.3     1  UNL1       -0.3820
     26 H         144.7719  141.6761  162.4623 H       1  UNL1        0.2107
     27 C         139.6240  144.3060  161.4736 C.ar    1  UNL1        0.2271
     28 C         140.7214  143.5223  162.1304 C.ar    1  UNL1        0.0559
     29 C         141.7292  142.7944  161.2910 C.ar    1  UNL1        0.0117
     30 C         141.6395  142.8503  159.7948 C.ar    1  UNL1        0.0559
     31 C         140.5420  143.6340  159.1379 C.ar    1  UNL1        0.2271
     32 N         139.5343  144.3618  159.9773 N.ar    1  UNL1       -0.1767
     33 O         138.6162  145.0338  162.3131 O.3     1  UNL1       -0.4602
     34 C         138.0156  144.1456  164.6796 C.3     1  UNL1        0.0512
     35 C         137.6992  144.2658  163.2183 C.3     1  UNL1        0.2072
     36 O         140.4524  143.6898  157.6416 O.3     1  UNL1       -0.4602
     37 C         140.9974  144.8752  156.9014 C.3     1  UNL1        0.2072
     38 C         140.2979  146.1992  156.9867 C.3     1  UNL1        0.0512
     39 C         143.8293  143.0244  161.4821 C.3     1  UNL1        0.0491
     40 C         144.6538  143.7785  162.4828 C.3     1  UNL1        0.0750
     41 N         144.0635  144.1555  163.8093 N.3     1  UNL1       -0.2702
     42 C         143.0311  145.2407  163.8896 C.3     1  UNL1        0.0897
     43 C         144.5055  143.4473  165.0554 C.3     1  UNL1        0.0897
@<TRIPOS>BOND
     1    34    35    1
     2    35    33    1
     3    33    27    1
     4    27    28   ar
     5    28    29   ar
     6    29    24    1
     7    24    25    1
     8    24    39    1
     9    39    40    1
    10    40    41    1
    11    41    42    1
    12    41    43    1
    13    24     1    1
    14     1     2    1
    15     2     3   ar
    16     3     4   ar
    17     4     5   ar
    18     5     6   ar
    19     6    12    1
    20    12    13    3
    21     6     7   ar
    22     7     8   ar
    23     8     9   ar
    24     9    10   ar
    25    10    11   ar
    26    11    14    1
    27    14    15    1
    28     1    16    1
    29    16    17   ar
    30    17    18   ar
    31    18    19   ar
    32    19    20   ar
    33    20    21    1
    34    20    22   ar
    35    22    23    1
    36    29    30   ar
    37    30    31   ar
    38    31    36    1
    39    36    37    1
    40    37    38    1
    41    31    32   ar
    42    32    27   ar
    43    11     2   ar
    44    22    16   ar
    45     9     4   ar
    46    25    26    1
@<TRIPOS>MOLECULE
*****
 43 46 0 0 0
SMALL
GASTEIGER

@<TRIPOS>ATOM
      1 C         141.8087  140.9225  162.6373 C.3     1  UNL1        0.0798
      2 C         141.6242  140.7255  164.1129 C.ar    1  UNL1        0.0374
      3 C         141.2899  141.8957  164.9898 C.ar    1  UNL1        0.0023
      4 C         141.1054  141.6988  166.4652 C.ar    1  UNL1        0.0183
      5 C         140.7711  142.8690  167.3421 C.ar    1  UNL1        0.0118
      6 C         140.5866  142.6720  168.8177 C.ar    1  UNL1        0.0685
      7 C         140.7364  141.3048  169.4163 C.ar    1  UNL1        0.0118
      8 C         141.0707  140.1346  168.5395 C.ar    1  UNL1        0.0199
      9 C         141.2552  140.3316  167.0640 C.ar    1  UNL1        0.0844
     10 N         141.5895  139.1614  166.1871 N.ar    1  UNL1       -0.2119
     11 C         141.7740  139.3584  164.7115 C.ar    1  UNL1        0.2211
     12 C         140.2522  143.8422  169.6945 C.1     1  UNL1        0.1004
     13 N         139.9179  145.0123  170.5714 N.1     1  UNL1       -0.1908
     14 O         142.1083  138.1882  163.8347 O.3     1  UNL1       -0.4563
     15 C         141.1144  137.0796  163.6521 C.3     1  UNL1        0.2542
     16 C         141.0216  140.0938  161.6659 C.ar    1  UNL1        0.0115
     17 C         141.7280  139.3424  160.5767 C.ar    1  UNL1       -0.0017
     18 C         140.9409  138.5136  159.6051 C.ar    1  UNL1       -0.0005
     19 C         139.4475  138.4364  159.7228 C.ar    1  UNL1       -0.0021
     20 C         138.7412  139.1880  160.8121 C.ar    1  UNL1        0.0053
     21 C         137.2478  139.1108  160.9297 C.3     1  UNL1        0.0334
     22 C         139.5282  140.0167  161.7835 C.ar    1  UNL1        0.1325
     23 F         138.8219  140.7681  162.8727 F       1  UNL1       -0.2048
     24 C         142.7802  141.9482  162.1333 C.3     1  UNL1        0.1162
     25 O         143.9035  141.2131  162.8026 O.3     1  UNL1       -0.3820
     26 H         144.7379  141.6800  162.6395 H       1  UNL1        0.2107
     27 C         140.4581  143.4703  159.2977 C.ar    1  UNL1        0.2271
     28 C         141.5813  142.7352  159.9669 C.ar    1  UNL1        0.0559
     29 C         141.6569  142.6834  161.4641 C.ar    1  UNL1        0.0117
     30 C         140.6093  143.3666  162.2920 C.ar    1  UNL1        0.0559
     31 C         139.4860  144.1017  161.6228 C.ar    1  UNL1        0.2271
     32 N         139.4104  144.1536  160.1256 N.ar    1  UNL1       -0.1767
     33 O         140.3825  143.5221  157.8005 O.3     1  UNL1       -0.4602
     34 C         141.2061  145.9702  157.5202 C.3     1  UNL1        0.0512
     35 C         140.3073  144.8457  157.0987 C.3     1  UNL1        0.2072
     36 O         138.4383  144.7850  162.4508 O.3     1  UNL1       -0.4602
     37 C         138.0605  144.2278  163.7912 C.3     1  UNL1        0.2072
     38 C         138.6302  144.8298  165.0414 C.3     1  UNL1        0.0512
     39 C         143.7518  142.9739  161.6293 C.3     1  UNL1        0.0491
     40 C         144.5973  143.7460  162.5983 C.3     1  UNL1        0.0750
     41 N         144.0208  144.1868  163.9111 N.3     1  UNL1       -0.2702
     42 C         144.5001  143.5626  165.1881 C.3     1  UNL1        0.0897
     43 C         142.9651  145.2517  163.9470 C.3     1  UNL1        0.0897
@<TRIPOS>BOND
     1    34    35    1
     2    35    33    1
     3    33    27    1
     4    27    28   ar
     5    28    29   ar
     6    29    24    1
     7    24    25    1
     8    24    39    1
     9    39    40    1
    10    40    41    1
    11    41    42    1
    12    41    43    1
    13    24     1    1
    14     1     2    1
    15     2     3   ar
    16     3     4   ar
    17     4     5   ar
    18     5     6   ar
    19     6    12    1
    20    12    13    3
    21     6     7   ar
    22     7     8   ar
    23     8     9   ar
    24     9    10   ar
    25    10    11   ar
    26    11    14    1
    27    14    15    1
    28     1    16    1
    29    16    17   ar
    30    17    18   ar
    31    18    19   ar
    32    19    20   ar
    33    20    21    1
    34    20    22   ar
    35    22    23    1
    36    29    30   ar
    37    30    31   ar
    38    31    36    1
    39    36    37    1
    40    37    38    1
    41    31    32   ar
    42    32    27   ar
    43    11     2   ar
    44    22    16   ar
    45     9     4   ar
    46    25    26    1
@<TRIPOS>MOLECULE
*****
 43 46 0 0 0
SMALL
GASTEIGER

@<TRIPOS>ATOM
      1 C         141.5074  142.0208  162.5411 C.3     1  UNL1        0.0798
      2 C         141.9452  142.0675  163.9751 C.ar    1  UNL1        0.0374
      3 C         141.1113  141.4119  165.0356 C.ar    1  UNL1        0.0023
      4 C         141.5491  141.4586  166.4695 C.ar    1  UNL1        0.0183
      5 C         140.7152  140.8029  167.5300 C.ar    1  UNL1        0.0118
      6 C         141.1531  140.8496  168.9640 C.ar    1  UNL1        0.0685
      7 C         142.4248  141.5520  169.3374 C.ar    1  UNL1        0.0118
      8 C         143.2587  142.2077  168.2768 C.ar    1  UNL1        0.0199
      9 C         142.8209  142.1610  166.8429 C.ar    1  UNL1        0.0844
     10 N         143.6548  142.8167  165.7824 N.ar    1  UNL1       -0.2119
     11 C         143.2169  142.7699  164.3484 C.ar    1  UNL1        0.2211
     12 C         140.3192  140.1940  170.0245 C.1     1  UNL1        0.1004
     13 N         139.4853  139.5383  171.0850 N.1     1  UNL1       -0.1908
     14 O         144.0508  143.4256  163.2879 O.3     1  UNL1       -0.4563
     15 C         143.9691  144.9089  163.0800 C.3     1  UNL1        0.2542
     16 C         142.3720  141.3514  161.5144 C.ar    1  UNL1        0.0115
     17 C         142.7489  139.9086  161.6768 C.ar    1  UNL1       -0.0017
     18 C         143.6135  139.2391  160.6500 C.ar    1  UNL1       -0.0005
     19 C         144.1013  140.0125  159.4608 C.ar    1  UNL1       -0.0021
     20 C         143.7244  141.4553  159.2985 C.ar    1  UNL1        0.0053
     21 C         144.2121  142.2286  158.1093 C.3     1  UNL1        0.0334
     22 C         142.8598  142.1247  160.3252 C.ar    1  UNL1        0.1325
     23 F         142.4829  143.5675  160.1628 F       1  UNL1       -0.2048
     24 C         140.2049  142.6435  162.1340 C.3     1  UNL1        0.1162
     25 O         140.7169  143.9893  162.5545 O.3     1  UNL1       -0.3820
     26 H         140.0331  144.6590  162.3969 H       1  UNL1        0.2107
     27 C         138.9166  139.6694  159.8438 C.ar    1  UNL1        0.2271
     28 C         139.4286  141.0152  160.2643 C.ar    1  UNL1        0.0559
     29 C         139.6929  141.2978  161.7135 C.ar    1  UNL1        0.0117
     30 C         139.4453  140.2346  162.7422 C.ar    1  UNL1        0.0559
     31 C         138.9333  138.8888  162.3217 C.ar    1  UNL1        0.2271
     32 N         138.6690  138.6062  160.8725 N.ar    1  UNL1       -0.1767
     33 O         138.6523  139.3868  158.3945 O.3     1  UNL1       -0.4602
     34 C         141.0218  138.3682  158.0820 C.3     1  UNL1        0.0512
     35 C         139.7763  138.9639  157.4957 C.3     1  UNL1        0.2072
     36 O         138.6857  137.8256  163.3506 O.3     1  UNL1       -0.4602
     37 C         139.6334  137.6604  164.5014 C.3     1  UNL1        0.2072
     38 C         141.0615  137.2779  164.2479 C.3     1  UNL1        0.0512
     39 C         138.9024  143.2662  161.7269 C.3     1  UNL1        0.0491
     40 C         138.1540  144.1379  162.6912 C.3     1  UNL1        0.0750
     41 N         138.1679  143.8190  164.1569 N.3     1  UNL1       -0.2702
     42 C         137.6233  142.5092  164.6446 C.3     1  UNL1        0.0897
     43 C         138.7264  144.8098  165.1347 C.3     1  UNL1        0.0897
@<TRIPOS>BOND
     1    34    35    1
     2    35    33    1
     3    33    27    1
     4    27    28   ar
     5    28    29   ar
     6    29    24    1
     7    24    25    1
     8    24    39    1
     9    39    40    1
    10    40    41    1
    11    41    42    1
    12    41    43    1
    13    24     1    1
    14     1     2    1
    15     2     3   ar
    16     3     4   ar
    17     4     5   ar
    18     5     6   ar
    19     6    12    1
    20    12    13    3
    21     6     7   ar
    22     7     8   ar
    23     8     9   ar
    24     9    10   ar
    25    10    11   ar
    26    11    14    1
    27    14    15    1
    28     1    16    1
    29    16    17   ar
    30    17    18   ar
    31    18    19   ar
    32    19    20   ar
    33    20    21    1
    34    20    22   ar
    35    22    23    1
    36    29    30   ar
    37    30    31   ar
    38    31    36    1
    39    36    37    1
    40    37    38    1
    41    31    32   ar
    42    32    27   ar
    43    11     2   ar
    44    22    16   ar
    45     9     4   ar
    46    25    26    1
@<TRIPOS>MOLECULE
*****
 43 46 0 0 0
SMALL
GASTEIGER

@<TRIPOS>ATOM
      1 C         141.5025  142.0608  162.5408 C.3     1  UNL1        0.0798
      2 C         141.9442  142.0886  163.9741 C.ar    1  UNL1        0.0374
      3 C         141.0989  141.4434  165.0320 C.ar    1  UNL1        0.0023
      4 C         141.5406  141.4712  166.4652 C.ar    1  UNL1        0.0183
      5 C         140.6953  140.8260  167.5231 C.ar    1  UNL1        0.0118
      6 C         141.1370  140.8538  168.9564 C.ar    1  UNL1        0.0685
      7 C         142.4239  141.5268  169.3317 C.ar    1  UNL1        0.0118
      8 C         143.2692  142.1720  168.2738 C.ar    1  UNL1        0.0199
      9 C         142.8275  142.1442  166.8405 C.ar    1  UNL1        0.0844
     10 N         143.6728  142.7894  165.7826 N.ar    1  UNL1       -0.2119
     11 C         143.2311  142.7616  164.3493 C.ar    1  UNL1        0.2211
     12 C         140.2917  140.2086  170.0143 C.1     1  UNL1        0.1004
     13 N         139.4464  139.5634  171.0723 N.1     1  UNL1       -0.1908
     14 O         144.0764  143.4068  163.2914 O.3     1  UNL1       -0.4563
     15 C         143.9754  144.8835  163.0479 C.3     1  UNL1        0.2542
     16 C         142.3538  141.3859  161.5066 C.ar    1  UNL1        0.0115
     17 C         142.7163  139.9386  161.6617 C.ar    1  UNL1       -0.0017
     18 C         143.5677  139.2636  160.6275 C.ar    1  UNL1       -0.0005
     19 C         144.0566  140.0359  159.4381 C.ar    1  UNL1       -0.0021
     20 C         143.6940  141.4832  159.2830 C.ar    1  UNL1        0.0053
     21 C         144.1829  142.2555  158.0936 C.3     1  UNL1        0.0334
     22 C         142.8427  142.1581  160.3172 C.ar    1  UNL1        0.1325
     23 F         142.4802  143.6053  160.1620 F       1  UNL1       -0.2048
     24 C         140.2094  142.7080  162.1418 C.3     1  UNL1        0.1162
     25 O         140.7445  144.0418  162.5714 O.3     1  UNL1       -0.3820
     26 H         140.0714  144.7239  162.4208 H       1  UNL1        0.2107
     27 C         138.8860  138.9700  162.3025 C.ar    1  UNL1        0.2271
     28 C         139.4210  140.3038  162.7321 C.ar    1  UNL1        0.0559
     29 C         139.6744  141.3741  161.7122 C.ar    1  UNL1        0.0117
     30 C         139.3928  141.1105  160.2627 C.ar    1  UNL1        0.0559
     31 C         138.8578  139.7766  159.8331 C.ar    1  UNL1        0.2271
     32 N         138.6044  138.7064  160.8530 N.ar    1  UNL1       -0.1767
     33 O         138.6325  137.8997  163.3225 O.3     1  UNL1       -0.4602
     34 C         141.0763  137.2442  163.9125 C.3     1  UNL1        0.0512
     35 C         139.6797  137.5768  164.3468 C.3     1  UNL1        0.2072
     36 O         138.5762  139.5131  158.3834 O.3     1  UNL1       -0.4602
     37 C         139.6749  139.0356  157.4808 C.3     1  UNL1        0.2072
     38 C         140.9413  138.4854  158.0668 C.3     1  UNL1        0.0512
     39 C         138.9164  143.3551  161.7428 C.3     1  UNL1        0.0491
     40 C         138.1821  144.2273  162.7175 C.3     1  UNL1        0.0750
     41 N         138.1646  143.8736  164.1751 N.3     1  UNL1       -0.2702
     42 C         138.7284  144.8282  165.1854 C.3     1  UNL1        0.0897
     43 C         137.5834  142.5651  164.6224 C.3     1  UNL1        0.0897
@<TRIPOS>BOND
     1    34    35    1
     2    35    33    1
     3    33    27    1
     4    27    28   ar
     5    28    29   ar
     6    29    24    1
     7    24    25    1
     8    24    39    1
     9    39    40    1
    10    40    41    1
    11    41    42    1
    12    41    43    1
    13    24     1    1
    14     1     2    1
    15     2     3   ar
    16     3     4   ar
    17     4     5   ar
    18     5     6   ar
    19     6    12    1
    20    12    13    3
    21     6     7   ar
    22     7     8   ar
    23     8     9   ar
    24     9    10   ar
    25    10    11   ar
    26    11    14    1
    27    14    15    1
    28     1    16    1
    29    16    17   ar
    30    17    18   ar
    31    18    19   ar
    32    19    20   ar
    33    20    21    1
    34    20    22   ar
    35    22    23    1
    36    29    30   ar
    37    30    31   ar
    38    31    36    1
    39    36    37    1
    40    37    38    1
    41    31    32   ar
    42    32    27   ar
    43    11     2   ar
    44    22    16   ar
    45     9     4   ar
    46    25    26    1
@<TRIPOS>MOLECULE
*****
 43 46 0 0 0
SMALL
GASTEIGER

@<TRIPOS>ATOM
      1 C         139.7541  140.8515  164.4041 C.3     1  UNL1        0.0798
      2 C         140.1463  140.8073  165.8514 C.ar    1  UNL1        0.0374
      3 C         141.3677  141.5411  166.3201 C.ar    1  UNL1        0.0023
      4 C         141.7599  141.4970  167.7673 C.ar    1  UNL1        0.0183
      5 C         142.9812  142.2307  168.2361 C.ar    1  UNL1        0.0118
      6 C         143.3734  142.1865  169.6833 C.ar    1  UNL1        0.0685
      7 C         142.5442  141.4086  170.6616 C.ar    1  UNL1        0.0118
      8 C         141.3228  140.6748  170.1928 C.ar    1  UNL1        0.0199
      9 C         140.9306  140.7190  168.7457 C.ar    1  UNL1        0.0844
     10 N         139.7092  139.9852  168.2769 N.ar    1  UNL1       -0.2119
     11 C         139.3171  140.0294  166.8297 C.ar    1  UNL1        0.2211
     12 C         144.5948  142.9203  170.1521 C.1     1  UNL1        0.1004
     13 N         145.8162  143.6541  170.6208 N.1     1  UNL1       -0.1908
     14 O         138.0957  139.2956  166.3609 O.3     1  UNL1       -0.4563
     15 C         137.4524  138.2685  167.2448 C.3     1  UNL1        0.2542
     16 C         139.3578  142.1537  163.7739 C.ar    1  UNL1        0.0115
     17 C         137.9273  142.3987  163.3949 C.ar    1  UNL1       -0.0017
     18 C         137.5309  143.7010  162.7646 C.ar    1  UNL1       -0.0005
     19 C         138.5650  144.7581  162.5135 C.ar    1  UNL1       -0.0021
     20 C         139.9955  144.5130  162.8925 C.ar    1  UNL1        0.0053
     21 C         141.0296  145.5701  162.6413 C.3     1  UNL1        0.0334
     22 C         140.3919  143.2108  163.5227 C.ar    1  UNL1        0.1325
     23 F         141.8223  142.9658  163.9018 F       1  UNL1       -0.2048
     24 C         139.7583  139.5935  163.5872 C.3     1  UNL1        0.1162
     25 O         138.2729  139.4763  163.7600 O.3     1  UNL1       -0.3820
     26 H         137.9553  138.6841  163.2992 H       1  UNL1        0.2107
     27 C         143.6510  139.3138  164.3073 C.ar    1  UNL1        0.2271
     28 C         142.1656  139.1966  164.4802 C.ar    1  UNL1        0.0559
     29 C         141.2437  139.7107  163.4144 C.ar    1  UNL1        0.0117
     30 C         141.8072  140.3419  162.1759 C.ar    1  UNL1        0.0559
     31 C         143.2926  140.4591  162.0031 C.ar    1  UNL1        0.2271
     32 N         144.2145  139.9450  163.0688 N.ar    1  UNL1       -0.1767
     33 O         144.5729  138.7997  165.3732 O.3     1  UNL1       -0.4602
     34 C         143.3435  138.4463  167.6345 C.3     1  UNL1        0.0512
     35 C         144.0502  137.8816  166.4380 C.3     1  UNL1        0.2072
     36 O         143.8561  141.0903  160.7645 O.3     1  UNL1       -0.4602
     37 C         144.1679  142.5574  160.7458 C.3     1  UNL1        0.2072
     38 C         144.3957  143.2923  162.0334 C.3     1  UNL1        0.0512
     39 C         139.7625  138.3355  162.7703 C.3     1  UNL1        0.0491
     40 C         138.7164  138.1218  161.7168 C.3     1  UNL1        0.0750
     41 N         138.6874  138.9985  160.5000 N.3     1  UNL1       -0.2702
     42 C         139.7426  138.8511  159.4441 C.3     1  UNL1        0.0897
     43 C         137.6033  140.0225  160.3390 C.3     1  UNL1        0.0897
@<TRIPOS>BOND
     1    34    35    1
     2    35    33    1
     3    33    27    1
     4    27    28   ar
     5    28    29   ar
     6    29    24    1
     7    24    25    1
     8    24    39    1
     9    39    40    1
    10    40    41    1
    11    41    42    1
    12    41    43    1
    13    24     1    1
    14     1     2    1
    15     2     3   ar
    16     3     4   ar
    17     4     5   ar
    18     5     6   ar
    19     6    12    1
    20    12    13    3
    21     6     7   ar
    22     7     8   ar
    23     8     9   ar
    24     9    10   ar
    25    10    11   ar
    26    11    14    1
    27    14    15    1
    28     1    16    1
    29    16    17   ar
    30    17    18   ar
    31    18    19   ar
    32    19    20   ar
    33    20    21    1
    34    20    22   ar
    35    22    23    1
    36    29    30   ar
    37    30    31   ar
    38    31    36    1
    39    36    37    1
    40    37    38    1
    41    31    32   ar
    42    32    27   ar
    43    11     2   ar
    44    22    16   ar
    45     9     4   ar
    46    25    26    1
@<TRIPOS>MOLECULE
*****
 43 46 0 0 0
SMALL
GASTEIGER

@<TRIPOS>ATOM
      1 C         140.7279  140.6896  162.1050 C.3     1  UNL1        0.0798
      2 C         140.1815  140.3019  163.4472 C.ar    1  UNL1        0.0374
      3 C         140.5640  141.0859  164.6675 C.ar    1  UNL1        0.0023
      4 C         140.0176  140.6983  166.0096 C.ar    1  UNL1        0.0183
      5 C         140.4000  141.4823  167.2299 C.ar    1  UNL1        0.0118
      6 C         139.8537  141.0946  168.5720 C.ar    1  UNL1        0.0685
      7 C         138.9249  139.9230  168.6938 C.ar    1  UNL1        0.0118
      8 C         138.5425  139.1391  167.4735 C.ar    1  UNL1        0.0199
      9 C         139.0889  139.5267  166.1314 C.ar    1  UNL1        0.0844
     10 N         138.7065  138.7427  164.9111 N.ar    1  UNL1       -0.2119
     11 C         139.2528  139.1304  163.5689 C.ar    1  UNL1        0.2211
     12 C         140.2361  141.8786  169.7923 C.1     1  UNL1        0.1004
     13 N         140.6185  142.6625  171.0126 N.1     1  UNL1       -0.1908
     14 O         138.8704  138.3464  162.3486 O.3     1  UNL1       -0.4563
     15 C         137.6155  138.6874  161.6009 C.3     1  UNL1        0.2542
     16 C         141.4503  139.6758  161.2680 C.ar    1  UNL1        0.0115
     17 C         142.6415  138.9547  161.8255 C.ar    1  UNL1       -0.0017
     18 C         143.3639  137.9409  160.9886 C.ar    1  UNL1       -0.0005
     19 C         142.8950  137.6483  159.5941 C.ar    1  UNL1       -0.0021
     20 C         141.7037  138.3696  159.0366 C.ar    1  UNL1        0.0053
     21 C         141.2348  138.0770  157.6421 C.3     1  UNL1        0.0334
     22 C         140.9814  139.3833  159.8736 C.ar    1  UNL1        0.1325
     23 F         139.7901  140.1044  159.3161 F       1  UNL1       -0.2048
     24 C         140.5519  142.0909  161.5999 C.3     1  UNL1        0.1162
     25 O         139.0625  141.9162  161.6340 O.3     1  UNL1       -0.3820
     26 H         138.6342  142.7329  161.3334 H       1  UNL1        0.2107
     27 C         144.3046  142.5322  162.8132 C.ar    1  UNL1        0.2271
     28 C         142.8153  142.3574  162.8474 C.ar    1  UNL1        0.0559
     29 C         142.0413  142.2657  161.5658 C.ar    1  UNL1        0.0117
     30 C         142.7568  142.3487  160.2500 C.ar    1  UNL1        0.0559
     31 C         144.2461  142.5235  160.2159 C.ar    1  UNL1        0.2271
     32 N         145.0201  142.6152  161.4975 N.ar    1  UNL1       -0.1767
     33 O         145.0786  142.6239  164.0949 O.3     1  UNL1       -0.4602
     34 C         143.6848  142.7314  166.2848 C.3     1  UNL1        0.0512
     35 C         144.5294  143.4107  165.2480 C.3     1  UNL1        0.2072
     36 O         144.9616  142.6065  158.9001 O.3     1  UNL1       -0.4602
     37 C         144.3387  142.0174  157.6693 C.3     1  UNL1        0.2072
     38 C         144.3438  140.5316  157.4638 C.3     1  UNL1        0.0512
     39 C         140.3759  143.4923  161.0948 C.3     1  UNL1        0.0491
     40 C         139.4385  144.4301  161.7960 C.3     1  UNL1        0.0750
     41 N         139.4118  144.4823  163.2949 N.3     1  UNL1       -0.2702
     42 C         140.6552  144.8373  164.0552 C.3     1  UNL1        0.0897
     43 C         138.1419  144.1796  164.0334 C.3     1  UNL1        0.0897
@<TRIPOS>BOND
     1    34    35    1
     2    35    33    1
     3    33    27    1
     4    27    28   ar
     5    28    29   ar
     6    29    24    1
     7    24    25    1
     8    24    39    1
     9    39    40    1
    10    40    41    1
    11    41    42    1
    12    41    43    1
    13    24     1    1
    14     1     2    1
    15     2     3   ar
    16     3     4   ar
    17     4     5   ar
    18     5     6   ar
    19     6    12    1
    20    12    13    3
    21     6     7   ar
    22     7     8   ar
    23     8     9   ar
    24     9    10   ar
    25    10    11   ar
    26    11    14    1
    27    14    15    1
    28     1    16    1
    29    16    17   ar
    30    17    18   ar
    31    18    19   ar
    32    19    20   ar
    33    20    21    1
    34    20    22   ar
    35    22    23    1
    36    29    30   ar
    37    30    31   ar
    38    31    36    1
    39    36    37    1
    40    37    38    1
    41    31    32   ar
    42    32    27   ar
    43    11     2   ar
    44    22    16   ar
    45     9     4   ar
    46    25    26    1
@<TRIPOS>MOLECULE
*****
 43 46 0 0 0
SMALL
GASTEIGER

@<TRIPOS>ATOM
      1 C         140.6213  140.7231  162.8343 C.3     1  UNL1        0.0798
      2 C         140.3996  140.6056  164.3133 C.ar    1  UNL1        0.0374
      3 C         141.1883  141.4608  165.2601 C.ar    1  UNL1        0.0023
      4 C         140.9667  141.3434  166.7390 C.ar    1  UNL1        0.0183
      5 C         141.7554  142.1986  167.6858 C.ar    1  UNL1        0.0118
      6 C         141.5338  142.0811  169.1647 C.ar    1  UNL1        0.0685
      7 C         140.5234  141.1084  169.6967 C.ar    1  UNL1        0.0118
      8 C         139.7347  140.2532  168.7499 C.ar    1  UNL1        0.0199
      9 C         139.9563  140.3707  167.2710 C.ar    1  UNL1        0.0844
     10 N         139.1676  139.5154  166.3242 N.ar    1  UNL1       -0.2119
     11 C         139.3893  139.6329  164.8453 C.ar    1  UNL1        0.2211
     12 C         142.3225  142.9363  170.1116 C.1     1  UNL1        0.1004
     13 N         143.1112  143.7915  171.0584 N.1     1  UNL1       -0.1908
     14 O         138.6005  138.7777  163.8984 O.3     1  UNL1       -0.4563
     15 C         139.1583  137.4663  163.4301 C.3     1  UNL1        0.2542
     16 C         141.6040  139.8205  162.1492 C.ar    1  UNL1        0.0115
     17 C         142.8976  139.4710  162.8232 C.ar    1  UNL1       -0.0017
     18 C         143.8804  138.5683  162.1381 C.ar    1  UNL1       -0.0005
     19 C         143.5695  138.0151  160.7789 C.ar    1  UNL1       -0.0021
     20 C         142.2758  138.3646  160.1049 C.ar    1  UNL1        0.0053
     21 C         141.9649  137.8115  158.7457 C.3     1  UNL1        0.0334
     22 C         141.2931  139.2673  160.7900 C.ar    1  UNL1        0.1325
     23 F         139.9994  139.6168  160.1160 F       1  UNL1       -0.2048
     24 C         139.8602  141.7433  162.0406 C.3     1  UNL1        0.1162
     25 O         138.5818  141.0130  162.3277 O.3     1  UNL1       -0.3820
     26 H         137.8423  141.4775  161.9057 H       1  UNL1        0.2107
     27 C         142.9610  143.2427  160.0692 C.ar    1  UNL1        0.2271
     28 C         141.6827  142.5123  160.3563 C.ar    1  UNL1        0.0559
     29 C         141.1385  142.4736  161.7535 C.ar    1  UNL1        0.0117
     30 C         141.8728  143.1652  162.8637 C.ar    1  UNL1        0.0559
     31 C         143.1511  143.8956  162.5766 C.ar    1  UNL1        0.2271
     32 N         143.6953  143.9343  161.1793 N.ar    1  UNL1       -0.1767
     33 O         143.5051  143.2814  158.6718 O.3     1  UNL1       -0.4602
     34 C         144.2966  140.8940  158.0207 C.3     1  UNL1        0.0512
     35 C         144.6022  142.3416  158.2679 C.3     1  UNL1        0.2072
     36 O         143.8854  144.5872  163.6869 O.3     1  UNL1       -0.4602
     37 C         144.3367  143.8084  164.8868 C.3     1  UNL1        0.2072
     38 C         144.8550  142.4105  164.7222 C.3     1  UNL1        0.0512
     39 C         139.0991  142.7635  161.2469 C.3     1  UNL1        0.0491
     40 C         138.2372  143.7700  161.9497 C.3     1  UNL1        0.0750
     41 N         138.8687  144.8590  162.7654 N.3     1  UNL1       -0.2702
     42 C         139.5509  146.0075  162.0830 C.3     1  UNL1        0.0897
     43 C         138.8181  144.7995  164.2633 C.3     1  UNL1        0.0897
@<TRIPOS>BOND
     1    34    35    1
     2    35    33    1
     3    33    27    1
     4    27    28   ar
     5    28    29   ar
     6    29    24    1
     7    24    25    1
     8    24    39    1
     9    39    40    1
    10    40    41    1
    11    41    42    1
    12    41    43    1
    13    24     1    1
    14     1     2    1
    15     2     3   ar
    16     3     4   ar
    17     4     5   ar
    18     5     6   ar
    19     6    12    1
    20    12    13    3
    21     6     7   ar
    22     7     8   ar
    23     8     9   ar
    24     9    10   ar
    25    10    11   ar
    26    11    14    1
    27    14    15    1
    28     1    16    1
    29    16    17   ar
    30    17    18   ar
    31    18    19   ar
    32    19    20   ar
    33    20    21    1
    34    20    22   ar
    35    22    23    1
    36    29    30   ar
    37    30    31   ar
    38    31    36    1
    39    36    37    1
    40    37    38    1
    41    31    32   ar
    42    32    27   ar
    43    11     2   ar
    44    22    16   ar
    45     9     4   ar
    46    25    26    1
@<TRIPOS>MOLECULE
*****
 43 46 0 0 0
SMALL
GASTEIGER

@<TRIPOS>ATOM
      1 C         140.4176  141.2428  162.4799 C.3     1  UNL1        0.0798
      2 C         140.4151  141.7134  163.9042 C.ar    1  UNL1        0.0374
      3 C         141.1969  140.9649  164.9427 C.ar    1  UNL1        0.0023
      4 C         141.1945  141.4354  166.3670 C.ar    1  UNL1        0.0183
      5 C         141.9763  140.6869  167.4055 C.ar    1  UNL1        0.0118
      6 C         141.9738  141.1575  168.8298 C.ar    1  UNL1        0.0685
      7 C         141.1895  142.3765  169.2156 C.ar    1  UNL1        0.0118
      8 C         140.4077  143.1250  168.1771 C.ar    1  UNL1        0.0199
      9 C         140.4101  142.6544  166.7528 C.ar    1  UNL1        0.0844
     10 N         139.6283  143.4029  165.7143 N.ar    1  UNL1       -0.2119
     11 C         139.6308  142.9324  164.2900 C.ar    1  UNL1        0.2211
     12 C         142.7557  140.4090  169.8683 C.1     1  UNL1        0.1004
     13 N         143.5375  139.6605  170.9068 N.1     1  UNL1       -0.1908
     14 O         138.8489  143.6808  163.2515 O.3     1  UNL1       -0.4563
     15 C         139.2373  145.0830  162.8863 C.3     1  UNL1        0.2542
     16 C         140.8835  142.1596  161.3879 C.ar    1  UNL1        0.0115
     17 C         142.2492  142.7759  161.4580 C.ar    1  UNL1       -0.0017
     18 C         142.7152  143.6928  160.3660 C.ar    1  UNL1       -0.0005
     19 C         141.8155  143.9932  159.2040 C.ar    1  UNL1       -0.0021
     20 C         140.4497  143.3768  159.1340 C.ar    1  UNL1        0.0053
     21 C         139.5500  143.6772  157.9720 C.3     1  UNL1        0.0334
     22 C         139.9838  142.4600  160.2260 C.ar    1  UNL1        0.1325
     23 F         138.6181  141.8436  160.1559 F       1  UNL1       -0.2048
     24 C         139.9541  139.8554  162.1476 C.3     1  UNL1        0.1162
     25 O         138.5655  140.2140  162.5873 O.3     1  UNL1       -0.3820
     26 H         137.9837  139.4454  162.4795 H       1  UNL1        0.2107
     27 C         143.8530  139.1242  162.2637 C.ar    1  UNL1        0.2271
     28 C         142.4645  139.4828  162.7035 C.ar    1  UNL1        0.0559
     29 C         141.3426  139.4969  161.7079 C.ar    1  UNL1        0.0117
     30 C         141.6094  139.1524  160.2726 C.ar    1  UNL1        0.0559
     31 C         142.9979  138.7939  159.8328 C.ar    1  UNL1        0.2271
     32 N         144.1198  138.7798  160.8284 N.ar    1  UNL1       -0.1767
     33 O         144.9749  139.1101  163.2594 O.3     1  UNL1       -0.4602
     34 C         145.7224  141.5616  163.6855 C.3     1  UNL1        0.0512
     35 C         145.1614  140.2673  164.1955 C.3     1  UNL1        0.2072
     36 O         143.2646  138.4494  158.3974 O.3     1  UNL1       -0.4602
     37 C         142.8992  139.4193  157.3130 C.3     1  UNL1        0.2072
     38 C         143.2331  140.8738  157.4639 C.3     1  UNL1        0.0512
     39 C         139.4906  138.4681  161.8153 C.3     1  UNL1        0.0491
     40 C         138.9041  137.5966  162.8860 C.3     1  UNL1        0.0750
     41 N         139.4452  137.6589  164.2837 N.3     1  UNL1       -0.2702
     42 C         140.8044  137.1019  164.5873 C.3     1  UNL1        0.0897
     43 C         138.6270  138.2781  165.3778 C.3     1  UNL1        0.0897
@<TRIPOS>BOND
     1    34    35    1
     2    35    33    1
     3    33    27    1
     4    27    28   ar
     5    28    29   ar
     6    29    24    1
     7    24    25    1
     8    24    39    1
     9    39    40    1
    10    40    41    1
    11    41    42    1
    12    41    43    1
    13    24     1    1
    14     1     2    1
    15     2     3   ar
    16     3     4   ar
    17     4     5   ar
    18     5     6   ar
    19     6    12    1
    20    12    13    3
    21     6     7   ar
    22     7     8   ar
    23     8     9   ar
    24     9    10   ar
    25    10    11   ar
    26    11    14    1
    27    14    15    1
    28     1    16    1
    29    16    17   ar
    30    17    18   ar
    31    18    19   ar
    32    19    20   ar
    33    20    21    1
    34    20    22   ar
    35    22    23    1
    36    29    30   ar
    37    30    31   ar
    38    31    36    1
    39    36    37    1
    40    37    38    1
    41    31    32   ar
    42    32    27   ar
    43    11     2   ar
    44    22    16   ar
    45     9     4   ar
    46    25    26    1
@<TRIPOS>MOLECULE
*****
 43 46 0 0 0
SMALL
GASTEIGER

@<TRIPOS>ATOM
      1 C         140.4089  141.2537  162.5248 C.3     1  UNL1        0.0798
      2 C         140.4080  141.7123  163.9530 C.ar    1  UNL1        0.0374
      3 C         141.1931  140.9567  164.9839 C.ar    1  UNL1        0.0023
      4 C         141.1922  141.4153  166.4120 C.ar    1  UNL1        0.0183
      5 C         141.9774  140.6597  167.4429 C.ar    1  UNL1        0.0118
      6 C         141.9764  141.1183  168.8711 C.ar    1  UNL1        0.0685
      7 C         141.1904  142.3324  169.2684 C.ar    1  UNL1        0.0118
      8 C         140.4052  143.0880  168.2376 C.ar    1  UNL1        0.0199
      9 C         140.4061  142.6295  166.8094 C.ar    1  UNL1        0.0844
     10 N         139.6210  143.3851  165.7786 N.ar    1  UNL1       -0.2119
     11 C         139.6219  142.9265  164.3504 C.ar    1  UNL1        0.2211
     12 C         142.7616  140.3627  169.9019 C.1     1  UNL1        0.1004
     13 N         143.5467  139.6071  170.9327 N.1     1  UNL1       -0.1908
     14 O         138.8368  143.6821  163.3195 O.3     1  UNL1       -0.4563
     15 C         139.2105  145.0943  162.9787 C.3     1  UNL1        0.2542
     16 C         140.8456  142.1895  161.4369 C.ar    1  UNL1        0.0115
     17 C         142.1735  142.8807  161.5306 C.ar    1  UNL1       -0.0017
     18 C         142.6103  143.8166  160.4426 C.ar    1  UNL1       -0.0005
     19 C         141.7192  144.0610  159.2611 C.ar    1  UNL1       -0.0021
     20 C         140.3912  143.3697  159.1674 C.ar    1  UNL1        0.0053
     21 C         139.5001  143.6142  157.9859 C.3     1  UNL1        0.0334
     22 C         139.9545  142.4339  160.2553 C.ar    1  UNL1        0.1325
     23 F         138.6266  141.7427  160.1617 F       1  UNL1       -0.2048
     24 C         139.9731  139.8593  162.1846 C.3     1  UNL1        0.1162
     25 O         138.5721  140.1953  162.6022 O.3     1  UNL1       -0.3820
     26 H         138.0044  139.4176  162.4848 H       1  UNL1        0.2107
     27 C         143.0672  138.8315  159.9218 C.ar    1  UNL1        0.2271
     28 C         141.6662  139.1675  160.3394 C.ar    1  UNL1        0.0559
     29 C         141.3741  139.5234  161.7670 C.ar    1  UNL1        0.0117
     30 C         142.4829  139.5433  162.7769 C.ar    1  UNL1        0.0559
     31 C         143.8839  139.2073  162.3593 C.ar    1  UNL1        0.2271
     32 N         144.1760  138.8514  160.9317 N.ar    1  UNL1       -0.1767
     33 O         143.3593  138.4756  158.4942 O.3     1  UNL1       -0.4602
     34 C         142.6859  136.4702  156.9859 C.3     1  UNL1        0.0512
     35 C         142.3302  137.7539  157.6755 C.3     1  UNL1        0.2072
     36 O         144.9928  139.2273  163.3693 O.3     1  UNL1       -0.4602
     37 C         145.3299  140.5000  164.0879 C.3     1  UNL1        0.2072
     38 C         145.5454  141.7652  163.3115 C.3     1  UNL1        0.0512
     39 C         139.5373  138.4649  161.8443 C.3     1  UNL1        0.0491
     40 C         138.9291  137.5905  162.9005 C.3     1  UNL1        0.0750
     41 N         139.4528  137.6365  164.3053 N.3     1  UNL1       -0.2702
     42 C         138.6135  138.2262  165.3997 C.3     1  UNL1        0.0897
     43 C         140.8158  137.0926  164.6158 C.3     1  UNL1        0.0897
@<TRIPOS>BOND
     1    34    35    1
     2    35    33    1
     3    33    27    1
     4    27    28   ar
     5    28    29   ar
     6    29    24    1
     7    24    25    1
     8    24    39    1
     9    39    40    1
    10    40    41    1
    11    41    42    1
    12    41    43    1
    13    24     1    1
    14     1     2    1
    15     2     3   ar
    16     3     4   ar
    17     4     5   ar
    18     5     6   ar
    19     6    12    1
    20    12    13    3
    21     6     7   ar
    22     7     8   ar
    23     8     9   ar
    24     9    10   ar
    25    10    11   ar
    26    11    14    1
    27    14    15    1
    28     1    16    1
    29    16    17   ar
    30    17    18   ar
    31    18    19   ar
    32    19    20   ar
    33    20    21    1
    34    20    22   ar
    35    22    23    1
    36    29    30   ar
    37    30    31   ar
    38    31    36    1
    39    36    37    1
    40    37    38    1
    41    31    32   ar
    42    32    27   ar
    43    11     2   ar
    44    22    16   ar
    45     9     4   ar
    46    25    26    1
