@<TRIPOS>MOLECULE
*****
 46 52 0 0 0
SMALL
GASTEIGER

@<TRIPOS>ATOM
      1 C         142.2703  142.7289  160.1881 C.3     1  UNL1        0.1707
      2 N         141.7900  143.3436  158.9069 N.3     1  UNL1       -0.2797
      3 C         140.6114  144.2714  158.9159 C.3     1  UNL1        0.1167
      4 C         139.9130  144.5844  160.2061 C.3     1  UNL1        0.0511
      5 C         140.3933  143.9696  161.4872 C.2     1  UNL1       -0.0037
      6 C         141.5720  143.0418  161.4782 C.2     1  UNL1        0.0800
      7 N         141.8165  142.5894  162.8873 N.2     1  UNL1       -0.2519
      8 C         140.7889  143.2375  163.7671 C.2     1  UNL1        0.0627
      9 C         140.5406  143.1612  165.2444 C.3     1  UNL1        0.0717
     10 C         139.4127  143.9378  165.8564 C.2     1  UNL1       -0.0198
     11 C         138.5331  144.7908  164.9911 C.2     1  UNL1       -0.0042
     12 C         138.7815  144.8672  163.5138 C.2     1  UNL1        0.0006
     13 C         139.9094  144.0905  162.9018 C.2     1  UNL1        0.0111
     14 H         141.5538  142.5736  158.2812 H       1  UNL1        0.1246
     15 C         143.0923  141.9061  161.1355 C.ar    1  UNL1        0.2494
     16 N         142.7450  140.5390  161.6455 N.ar    1  UNL1       -0.1281
     17 N         143.8440  140.0941  162.5645 N.ar    1  UNL1       -0.1735
     18 C         144.8704  141.1864  162.6223 C.ar    1  UNL1        0.4393
     19 O         146.1388  141.1628  163.4227 O.2     1  UNL1       -0.2210
     20 O         144.4059  142.3063  161.7391 O.2     1  UNL1       -0.3896
     21 C         143.9056  138.7866  163.2969 C.3     1  UNL1        0.2180
     22 C         142.6429  138.0336  163.5947 C.2     1  UNL1        0.2445
     23 N         141.8594  137.4113  162.4772 N.am    1  UNL1       -0.3272
     24 O         142.1638  137.9028  165.0101 O.2     1  UNL1       -0.2732
     25 H         142.1739  137.4972  161.5482 H       1  UNL1        0.1450
     26 H         141.0307  136.9171  162.6727 H       1  UNL1        0.1450
     27 C         140.1310  144.8862  157.6348 C.ar    1  UNL1        0.1319
     28 N         140.3122  146.3166  157.2211 N.ar    1  UNL1       -0.2282
     29 C         139.6783  146.4931  155.8731 C.ar    1  UNL1        0.1171
     30 C         139.1055  145.1717  155.4537 C.ar    1  UNL1        0.0942
     31 N         139.3853  144.1787  156.5425 N.ar    1  UNL1       -0.3385
     32 H         139.1251  143.2292  156.5405 H       1  UNL1        0.1672
     33 C         139.6265  147.7672  155.0831 C.ar    1  UNL1        0.1006
     34 C         138.9502  148.9775  155.6556 C.ar    1  UNL1        0.0230
     35 C         138.8983  150.2516  154.8657 C.ar    1  UNL1        0.0328
     36 C         139.5227  150.3154  153.5034 C.ar    1  UNL1        0.1592
     37 F         139.4709  151.5896  152.7135 F       1  UNL1       -0.2025
     38 C         140.1990  149.1051  152.9309 C.ar    1  UNL1        0.1284
     39 N         140.2509  147.8310  153.7208 N.ar    1  UNL1       -0.2399
     40 N         145.0937  141.8791  157.6639 N.ar    1  UNL1       -0.2497
     41 C         144.3594  142.8629  158.5259 C.ar    1  UNL1        0.0944
     42 C         143.2541  142.1302  159.2270 C.ar    1  UNL1        0.0439
     43 C         143.3053  140.6936  158.7982 C.ar    1  UNL1        0.1194
     44 N         144.4423  140.5385  157.8322 N.ar    1  UNL1       -0.1679
     45 C         147.4332  142.9599  157.3342 C.3     1  UNL1        0.0284
     46 C         146.2726  142.1827  156.7874 C.3     1  UNL1        0.1276
@<TRIPOS>BOND
     1    45    46    1
     2    46    40    1
     3    40    41   ar
     4    41    42   ar
     5     1    42    1
     6     1    15    1
     7    15    16   ar
     8    16    17   ar
     9    17    21    1
    10    21    22    1
    11    22    23   am
    12    22    24    2
    13    17    18   ar
    14    18    19    2
    15    18    20   ar
    16     1     2    1
    17     2     3    1
    18     3    27    1
    19    27    28   ar
    20    28    29   ar
    21    29    33    1
    22    33    34   ar
    23    34    35   ar
    24    35    36   ar
    25    36    37    1
    26    36    38   ar
    27    38    39   ar
    28    29    30   ar
    29    30    31   ar
    30     3     4    1
    31     4     5    1
    32     5     6    2
    33     6     7    1
    34     7     8    2
    35     8     9    1
    36     9    10    1
    37    10    11    2
    38    11    12    1
    39    12    13    2
    40    42    43   ar
    41    43    44   ar
    42    44    40   ar
    43     6     1    1
    44    13     8    1
    45    20    15   ar
    46    31    27   ar
    47    13     5    1
    48    39    33   ar
    49    23    25    1
    50    23    26    1
    51     2    14    1
    52    31    32    1
@<TRIPOS>MOLECULE
*****
 46 52 0 0 0
SMALL
GASTEIGER

@<TRIPOS>ATOM
      1 C         141.9525  141.2183  159.8126 C.3     1  UNL1        0.1707
      2 N         141.9682  139.8504  159.1975 N.3     1  UNL1       -0.2797
      3 C         141.4823  139.6545  157.7920 C.3     1  UNL1        0.1167
      4 C         140.9807  140.8265  157.0016 C.3     1  UNL1        0.0511
      5 C         140.9650  142.1945  157.6167 C.2     1  UNL1       -0.0037
      6 C         141.4509  142.3904  159.0222 C.2     1  UNL1        0.0800
      7 N         141.3170  143.8456  159.3603 N.2     1  UNL1       -0.2519
      8 C         140.7484  144.5491  158.1637 C.2     1  UNL1        0.0627
      9 C         140.4006  145.9871  157.9162 C.3     1  UNL1        0.0717
     10 C         139.8352  146.4045  156.5910 C.2     1  UNL1       -0.0198
     11 C         139.6176  145.3840  155.5134 C.2     1  UNL1       -0.0042
     12 C         139.9654  143.9460  155.7609 C.2     1  UNL1        0.0006
     13 C         140.5308  143.5286  157.0861 C.2     1  UNL1        0.0111
     14 H         141.3949  139.2531  159.7932 H       1  UNL1        0.1246
     15 C         142.1328  142.3112  160.8243 C.ar    1  UNL1        0.2494
     16 N         141.0882  142.8113  161.7773 N.ar    1  UNL1       -0.1281
     17 N         141.6992  143.9050  162.6025 N.ar    1  UNL1       -0.1735
     18 C         143.1213  144.0806  162.1593 C.ar    1  UNL1        0.4393
     19 O         144.1032  145.0679  162.7172 O.2     1  UNL1       -0.2210
     20 O         143.3894  143.0955  161.0602 O.2     1  UNL1       -0.3896
     21 C         141.0090  144.6858  163.6814 C.3     1  UNL1        0.2180
     22 C         139.5240  144.8904  163.6261 C.2     1  UNL1        0.2445
     23 N         138.8379  145.0511  162.3019 N.am    1  UNL1       -0.3272
     24 O         138.7253  144.9343  164.8949 O.2     1  UNL1       -0.2732
     25 H         139.3622  145.0223  161.4692 H       1  UNL1        0.1450
     26 H         137.8633  145.1855  162.2657 H       1  UNL1        0.1450
     27 C         141.4980  138.2864  157.1768 C.ar    1  UNL1        0.1319
     28 N         142.5354  137.2279  157.4076 N.ar    1  UNL1       -0.2282
     29 C         142.1576  136.0241  156.5963 C.ar    1  UNL1        0.1171
     30 C         140.8868  136.3387  155.8641 C.ar    1  UNL1        0.0942
     31 N         140.4792  137.7369  156.2229 N.ar    1  UNL1       -0.3385
     32 H         139.6828  138.2108  155.8906 H       1  UNL1        0.1672
     33 C         142.9173  134.7324  156.5290 C.ar    1  UNL1        0.1006
     34 C         142.9129  133.9246  155.2651 C.ar    1  UNL1        0.0230
     35 C         143.6726  132.6330  155.1978 C.ar    1  UNL1        0.0328
     36 C         144.4367  132.1491  156.3944 C.ar    1  UNL1        0.1592
     37 F         145.1964  130.8574  156.3271 F       1  UNL1       -0.2025
     38 C         144.4411  132.9568  157.6584 C.ar    1  UNL1        0.1284
     39 N         143.6814  134.2485  157.7257 N.ar    1  UNL1       -0.2399
     40 N         142.6902  139.0503  162.9464 N.ar    1  UNL1       -0.2497
     41 C         141.7240  139.7076  162.0059 C.ar    1  UNL1        0.0944
     42 C         142.5167  140.4259  160.9543 C.ar    1  UNL1        0.0439
     43 C         143.9728  140.2125  161.2450 C.ar    1  UNL1        0.1194
     44 N         144.0799  139.3623  162.4762 N.ar    1  UNL1       -0.1679
     45 C         141.2026  137.2391  164.0675 C.3     1  UNL1        0.0284
     46 C         142.3297  138.2257  164.1465 C.3     1  UNL1        0.1276
@<TRIPOS>BOND
     1    45    46    1
     2    46    40    1
     3    40    41   ar
     4    41    42   ar
     5     1    42    1
     6     1    15    1
     7    15    16   ar
     8    16    17   ar
     9    17    21    1
    10    21    22    1
    11    22    23   am
    12    22    24    2
    13    17    18   ar
    14    18    19    2
    15    18    20   ar
    16     1     2    1
    17     2     3    1
    18     3    27    1
    19    27    28   ar
    20    28    29   ar
    21    29    33    1
    22    33    34   ar
    23    34    35   ar
    24    35    36   ar
    25    36    37    1
    26    36    38   ar
    27    38    39   ar
    28    29    30   ar
    29    30    31   ar
    30     3     4    1
    31     4     5    1
    32     5     6    2
    33     6     7    1
    34     7     8    2
    35     8     9    1
    36     9    10    1
    37    10    11    2
    38    11    12    1
    39    12    13    2
    40    42    43   ar
    41    43    44   ar
    42    44    40   ar
    43     6     1    1
    44    13     8    1
    45    20    15   ar
    46    31    27   ar
    47    13     5    1
    48    39    33   ar
    49    23    25    1
    50    23    26    1
    51     2    14    1
    52    31    32    1
@<TRIPOS>MOLECULE
*****
 46 52 0 0 0
SMALL
GASTEIGER

@<TRIPOS>ATOM
      1 C         140.9580  141.5535  159.8018 C.3     1  UNL1        0.1707
      2 N         141.2501  140.4688  158.8078 N.3     1  UNL1       -0.2797
      3 C         142.4965  139.6450  158.9413 C.3     1  UNL1        0.1167
      4 C         143.4508  139.9060  160.0688 C.3     1  UNL1        0.0511
      5 C         143.1588  140.9907  161.0628 C.2     1  UNL1       -0.0037
      6 C         141.9123  141.8145  160.9293 C.2     1  UNL1        0.0800
      7 N         141.8908  142.8079  162.0529 N.2     1  UNL1       -0.2519
      8 C         143.1239  142.5982  162.8808 C.2     1  UNL1        0.0627
      9 C         143.6345  143.2848  164.1128 C.3     1  UNL1        0.0717
     10 C         144.9286  142.8482  164.7329 C.2     1  UNL1       -0.0198
     11 C         145.7123  141.7251  164.1210 C.2     1  UNL1       -0.0042
     12 C         145.2017  141.0385  162.8889 C.2     1  UNL1        0.0006
     13 C         143.9076  141.4751  162.2689 C.2     1  UNL1        0.0111
     14 H         141.2873  140.9125  157.8902 H       1  UNL1        0.1246
     15 C         140.2490  142.6840  160.4869 C.ar    1  UNL1        0.2494
     16 N         139.2029  142.5513  161.5536 N.ar    1  UNL1       -0.1281
     17 N         138.7690  143.9311  161.9515 N.ar    1  UNL1       -0.1735
     18 C         139.5470  144.9163  161.1306 C.ar    1  UNL1        0.4393
     19 O         139.4307  146.4101  161.2024 O.2     1  UNL1       -0.2210
     20 O         140.4617  144.1456  160.2254 O.2     1  UNL1       -0.3896
     21 C         137.7382  144.2664  162.9882 C.3     1  UNL1        0.2180
     22 C         137.8724  143.7269  164.3814 C.2     1  UNL1        0.2445
     23 N         137.6944  142.2597  164.6379 N.am    1  UNL1       -0.3272
     24 O         138.1846  144.6545  165.5181 O.2     1  UNL1       -0.2732
     25 H         137.4895  141.6509  163.8918 H       1  UNL1        0.1450
     26 H         137.7825  141.9056  165.5522 H       1  UNL1        0.1450
     27 C         142.7886  138.5602  157.9473 C.ar    1  UNL1        0.1319
     28 N         142.3467  137.1303  158.0475 N.ar    1  UNL1       -0.2282
     29 C         142.8589  136.4013  156.8408 C.ar    1  UNL1        0.1171
     30 C         143.6173  137.3806  155.9949 C.ar    1  UNL1        0.0942
     31 N         143.5739  138.7149  156.6787 N.ar    1  UNL1       -0.3385
     32 H         143.9881  139.5462  156.3523 H       1  UNL1        0.1672
     33 C         142.6494  134.9479  156.5339 C.ar    1  UNL1        0.1006
     34 C         141.6893  134.5398  155.4561 C.ar    1  UNL1        0.0230
     35 C         141.4798  133.0866  155.1492 C.ar    1  UNL1        0.0328
     36 C         142.2303  132.0415  155.9202 C.ar    1  UNL1        0.1592
     37 F         142.0208  130.5882  155.6133 F       1  UNL1       -0.2025
     38 C         143.1904  132.4496  156.9980 C.ar    1  UNL1        0.1284
     39 N         143.3999  133.9028  157.3049 N.ar    1  UNL1       -0.2399
     40 N         138.2104  142.4981  157.2281 N.ar    1  UNL1       -0.2497
     41 C         139.5381  142.7503  157.8791 C.ar    1  UNL1        0.0944
     42 C         139.7574  141.6852  158.9123 C.ar    1  UNL1        0.0439
     43 C         138.5653  140.7748  158.8998 C.ar    1  UNL1        0.1194
     44 N         137.6092  141.2773  157.8589 N.ar    1  UNL1       -0.1679
     45 C         136.6394  142.6893  155.1677 C.3     1  UNL1        0.0284
     46 C         137.5925  143.3223  156.1377 C.3     1  UNL1        0.1276
@<TRIPOS>BOND
     1    45    46    1
     2    46    40    1
     3    40    41   ar
     4    41    42   ar
     5     1    42    1
     6     1    15    1
     7    15    16   ar
     8    16    17   ar
     9    17    21    1
    10    21    22    1
    11    22    23   am
    12    22    24    2
    13    17    18   ar
    14    18    19    2
    15    18    20   ar
    16     1     2    1
    17     2     3    1
    18     3    27    1
    19    27    28   ar
    20    28    29   ar
    21    29    33    1
    22    33    34   ar
    23    34    35   ar
    24    35    36   ar
    25    36    37    1
    26    36    38   ar
    27    38    39   ar
    28    29    30   ar
    29    30    31   ar
    30     3     4    1
    31     4     5    1
    32     5     6    2
    33     6     7    1
    34     7     8    2
    35     8     9    1
    36     9    10    1
    37    10    11    2
    38    11    12    1
    39    12    13    2
    40    42    43   ar
    41    43    44   ar
    42    44    40   ar
    43     6     1    1
    44    13     8    1
    45    20    15   ar
    46    31    27   ar
    47    13     5    1
    48    39    33   ar
    49    23    25    1
    50    23    26    1
    51     2    14    1
    52    31    32    1
@<TRIPOS>MOLECULE
*****
 46 52 0 0 0
SMALL
GASTEIGER

@<TRIPOS>ATOM
      1 C         141.8850  140.6479  160.1832 C.3     1  UNL1        0.1707
      2 N         142.3521  139.4236  159.4533 N.3     1  UNL1       -0.2797
      3 C         142.4592  139.4376  157.9572 C.3     1  UNL1        0.1167
      4 C         142.0992  140.6759  157.1910 C.3     1  UNL1        0.0511
      5 C         141.6320  141.9002  157.9209 C.2     1  UNL1       -0.0037
      6 C         141.5249  141.8862  159.4170 C.2     1  UNL1        0.0800
      7 N         141.0376  143.2341  159.8594 N.2     1  UNL1       -0.2519
      8 C         140.8435  144.0811  158.6367 C.2     1  UNL1        0.0627
      9 C         140.3798  145.4965  158.4596 C.3     1  UNL1        0.0717
     10 C         140.2834  146.0875  157.0843 C.2     1  UNL1       -0.0198
     11 C         140.6508  145.2631  155.8862 C.2     1  UNL1       -0.0042
     12 C         141.1145  143.8477  156.0634 C.2     1  UNL1        0.0006
     13 C         141.2109  143.2567  157.4387 C.2     1  UNL1        0.0111
     14 H         141.7062  138.6721  159.6953 H       1  UNL1        0.1246
     15 C         141.4959  141.5512  161.3159 C.ar    1  UNL1        0.2494
     16 N         142.4165  142.4601  162.0748 N.ar    1  UNL1       -0.1281
     17 N         141.6073  143.1748  163.1164 N.ar    1  UNL1       -0.1735
     18 C         140.1867  142.7074  163.0010 C.ar    1  UNL1        0.4393
     19 O         139.0369  143.1635  163.8495 O.2     1  UNL1       -0.2210
     20 O         140.1178  141.7040  161.8882 O.2     1  UNL1       -0.3896
     21 C         142.1276  144.1802  164.1004 C.3     1  UNL1        0.2180
     22 C         143.5507  144.6468  164.0145 C.2     1  UNL1        0.2445
     23 N         144.0320  145.3644  162.7884 N.am    1  UNL1       -0.3272
     24 O         144.4924  144.3958  165.1548 O.2     1  UNL1       -0.2732
     25 H         143.4139  145.5291  162.0401 H       1  UNL1        0.1450
     26 H         144.9659  145.6706  162.7321 H       1  UNL1        0.1450
     27 C         142.9264  138.2132  157.2272 C.ar    1  UNL1        0.1319
     28 N         142.5144  136.8011  157.5205 N.ar    1  UNL1       -0.2282
     29 C         143.2209  135.9012  156.5504 C.ar    1  UNL1        0.1171
     30 C         144.0695  136.7572  155.6576 C.ar    1  UNL1        0.0942
     31 N         143.8875  138.1861  156.0759 N.ar    1  UNL1       -0.3385
     32 H         144.3224  138.9688  155.6667 H       1  UNL1        0.1672
     33 C         143.1001  134.4074  156.4847 C.ar    1  UNL1        0.1006
     34 C         142.0124  133.7784  155.6654 C.ar    1  UNL1        0.0230
     35 C         141.8915  132.2847  155.5996 C.ar    1  UNL1        0.0328
     36 C         142.8582  131.4202  156.3532 C.ar    1  UNL1        0.1592
     37 F         142.7373  129.9264  156.2875 F       1  UNL1       -0.2025
     38 C         143.9459  132.0492  157.1725 C.ar    1  UNL1        0.1284
     39 N         144.0668  133.5429  157.2383 N.ar    1  UNL1       -0.2399
     40 N         141.7219  138.1488  163.1485 N.ar    1  UNL1       -0.2497
     41 C         141.0542  138.9342  162.0589 C.ar    1  UNL1        0.0944
     42 C         142.1099  139.7234  161.3428 C.ar    1  UNL1        0.0439
     43 C         143.4300  139.4256  161.9898 C.ar    1  UNL1        0.1194
     44 N         143.1902  138.4524  163.1058 N.ar    1  UNL1       -0.1679
     45 C         139.7260  137.6086  164.7216 C.3     1  UNL1        0.0284
     46 C         141.0408  137.2222  164.1117 C.3     1  UNL1        0.1276
@<TRIPOS>BOND
     1    45    46    1
     2    46    40    1
     3    40    41   ar
     4    41    42   ar
     5     1    42    1
     6     1    15    1
     7    15    16   ar
     8    16    17   ar
     9    17    21    1
    10    21    22    1
    11    22    23   am
    12    22    24    2
    13    17    18   ar
    14    18    19    2
    15    18    20   ar
    16     1     2    1
    17     2     3    1
    18     3    27    1
    19    27    28   ar
    20    28    29   ar
    21    29    33    1
    22    33    34   ar
    23    34    35   ar
    24    35    36   ar
    25    36    37    1
    26    36    38   ar
    27    38    39   ar
    28    29    30   ar
    29    30    31   ar
    30     3     4    1
    31     4     5    1
    32     5     6    2
    33     6     7    1
    34     7     8    2
    35     8     9    1
    36     9    10    1
    37    10    11    2
    38    11    12    1
    39    12    13    2
    40    42    43   ar
    41    43    44   ar
    42    44    40   ar
    43     6     1    1
    44    13     8    1
    45    20    15   ar
    46    31    27   ar
    47    13     5    1
    48    39    33   ar
    49    23    25    1
    50    23    26    1
    51     2    14    1
    52    31    32    1
@<TRIPOS>MOLECULE
*****
 46 52 0 0 0
SMALL
GASTEIGER

@<TRIPOS>ATOM
      1 C         141.1038  140.3518  159.6840 C.3     1  UNL1        0.1707
      2 N         141.6702  139.1109  159.0602 N.3     1  UNL1       -0.2797
      3 C         142.3053  139.1766  157.7029 C.3     1  UNL1        0.1167
      4 C         142.3741  140.4832  156.9694 C.3     1  UNL1        0.0511
      5 C         141.8078  141.7242  157.5933 C.2     1  UNL1       -0.0037
      6 C         141.1726  141.6585  158.9506 C.2     1  UNL1        0.0800
      7 N         140.7031  143.0371  159.3098 N.2     1  UNL1       -0.2519
      8 C         141.0481  143.9548  158.1745 C.2     1  UNL1        0.0627
      9 C         140.8288  145.4245  157.9697 C.3     1  UNL1        0.0717
     10 C         141.2922  146.0827  156.7041 C.2     1  UNL1       -0.0198
     11 C         141.9749  145.2712  155.6432 C.2     1  UNL1       -0.0042
     12 C         142.1943  143.8016  155.8480 C.2     1  UNL1        0.0006
     13 C         141.7308  143.1434  157.1136 C.2     1  UNL1        0.0111
     14 H         140.9057  138.4387  158.9953 H       1  UNL1        0.1246
     15 C         140.4326  141.2471  160.6831 C.ar    1  UNL1        0.2494
     16 N         141.1231  142.1454  161.6659 N.ar    1  UNL1       -0.1281
     17 N         140.0702  142.8546  162.4649 N.ar    1  UNL1       -0.1735
     18 C         138.7289  142.3945  161.9758 C.ar    1  UNL1        0.4393
     19 O         137.3974  142.8483  162.4966 O.2     1  UNL1       -0.2210
     20 O         138.9528  141.4010  160.8746 O.2     1  UNL1       -0.3896
     21 C         140.3156  143.8492  163.5605 C.3     1  UNL1        0.2180
     22 C         141.0875  145.1035  163.2758 C.2     1  UNL1        0.2445
     23 N         140.4966  146.1640  162.3949 N.am    1  UNL1       -0.3272
     24 O         142.4501  145.2972  163.8721 O.2     1  UNL1       -0.2732
     25 H         139.6022  146.0369  162.0035 H       1  UNL1        0.1450
     26 H         141.0032  146.9872  162.2080 H       1  UNL1        0.1450
     27 C         142.8718  137.9355  157.0790 C.ar    1  UNL1        0.1319
     28 N         142.5065  136.5247  157.4340 N.ar    1  UNL1       -0.2282
     29 C         143.3118  135.6048  156.5650 C.ar    1  UNL1        0.1171
     30 C         144.1748  136.4471  155.6729 C.ar    1  UNL1        0.0942
     31 N         143.9028  137.8876  155.9906 N.ar    1  UNL1       -0.3385
     32 H         144.3266  138.6651  155.5603 H       1  UNL1        0.1672
     33 C         143.2627  134.1056  156.5847 C.ar    1  UNL1        0.1006
     34 C         142.1885  133.3805  155.8296 C.ar    1  UNL1        0.0230
     35 C         142.1393  131.8814  155.8492 C.ar    1  UNL1        0.0328
     36 C         143.1645  131.1076  156.6239 C.ar    1  UNL1        0.1592
     37 F         143.1154  129.6084  156.6436 F       1  UNL1       -0.2025
     38 C         144.2388  131.8327  157.3790 C.ar    1  UNL1        0.1284
     39 N         144.2879  133.3318  157.3593 N.ar    1  UNL1       -0.2399
     40 N         140.9385  138.0568  162.8099 N.ar    1  UNL1       -0.2497
     41 C         141.5974  139.1479  162.0189 C.ar    1  UNL1        0.0944
     42 C         140.8019  139.3561  160.7644 C.ar    1  UNL1        0.0439
     43 C         139.6514  138.3937  160.7800 C.ar    1  UNL1        0.1194
     44 N         139.7359  137.5907  162.0442 N.ar    1  UNL1       -0.1679
     45 C         142.4069  138.2924  164.9402 C.3     1  UNL1        0.0284
     46 C         141.4012  137.5252  164.1340 C.3     1  UNL1        0.1276
@<TRIPOS>BOND
     1    45    46    1
     2    46    40    1
     3    40    41   ar
     4    41    42   ar
     5     1    42    1
     6     1    15    1
     7    15    16   ar
     8    16    17   ar
     9    17    21    1
    10    21    22    1
    11    22    23   am
    12    22    24    2
    13    17    18   ar
    14    18    19    2
    15    18    20   ar
    16     1     2    1
    17     2     3    1
    18     3    27    1
    19    27    28   ar
    20    28    29   ar
    21    29    33    1
    22    33    34   ar
    23    34    35   ar
    24    35    36   ar
    25    36    37    1
    26    36    38   ar
    27    38    39   ar
    28    29    30   ar
    29    30    31   ar
    30     3     4    1
    31     4     5    1
    32     5     6    2
    33     6     7    1
    34     7     8    2
    35     8     9    1
    36     9    10    1
    37    10    11    2
    38    11    12    1
    39    12    13    2
    40    42    43   ar
    41    43    44   ar
    42    44    40   ar
    43     6     1    1
    44    13     8    1
    45    20    15   ar
    46    31    27   ar
    47    13     5    1
    48    39    33   ar
    49    23    25    1
    50    23    26    1
    51     2    14    1
    52    31    32    1
@<TRIPOS>MOLECULE
*****
 46 52 0 0 0
SMALL
GASTEIGER

@<TRIPOS>ATOM
      1 C         140.6963  142.0694  159.3007 C.3     1  UNL1        0.1707
      2 N         139.3729  141.7899  158.6523 N.3     1  UNL1       -0.2797
      3 C         139.3088  141.4601  157.1904 C.3     1  UNL1        0.1167
      4 C         140.5680  141.4099  156.3769 C.3     1  UNL1        0.0511
      5 C         141.8914  141.6895  157.0253 C.2     1  UNL1       -0.0037
      6 C         141.9555  142.0192  158.4872 C.2     1  UNL1        0.0800
      7 N         143.3935  142.2470  158.8483 N.2     1  UNL1       -0.2519
      8 C         144.2181  142.0581  157.6096 C.2     1  UNL1        0.0627
      9 C         145.6943  142.1553  157.3620 C.3     1  UNL1        0.0717
     10 C         146.2421  141.9080  155.9878 C.2     1  UNL1       -0.0198
     11 C         145.3138  141.5634  154.8611 C.2     1  UNL1       -0.0042
     12 C         143.8376  141.4661  155.1086 C.2     1  UNL1        0.0006
     13 C         143.2897  141.7135  156.4829 C.2     1  UNL1        0.0111
     14 H         138.7952  142.6187  158.7928 H       1  UNL1        0.1246
     15 C         141.7040  142.4071  160.3593 C.ar    1  UNL1        0.2494
     16 N         142.3539  141.4361  161.2997 N.ar    1  UNL1       -0.1281
     17 N         143.2902  142.2041  162.1849 N.ar    1  UNL1       -0.1735
     18 C         143.2189  143.6498  161.7915 C.ar    1  UNL1        0.4393
     19 O         143.9922  144.7729  162.4166 O.2     1  UNL1       -0.2210
     20 O         142.2385  143.7753  160.6631 O.2     1  UNL1       -0.3896
     21 C         144.1473  141.6276  163.2726 C.3     1  UNL1        0.2180
     22 C         144.6379  140.2137  163.1708 C.2     1  UNL1        0.2445
     23 N         144.5283  139.4736  161.8707 N.am    1  UNL1       -0.3272
     24 O         145.2381  139.5401  164.3691 O.2     1  UNL1       -0.2732
     25 H         144.1344  139.9157  161.0843 H       1  UNL1        0.1450
     26 H         144.8504  138.5456  161.8039 H       1  UNL1        0.1450
     27 C         137.9853  141.1805  156.5419 C.ar    1  UNL1        0.1319
     28 N         136.7123  140.8279  157.2526 N.ar    1  UNL1       -0.2282
     29 C         135.6428  140.6340  156.2189 C.ar    1  UNL1        0.1171
     30 C         136.2548  140.8667  154.8694 C.ar    1  UNL1        0.0942
     31 N         137.7026  141.2045  155.0690 N.ar    1  UNL1       -0.3385
     32 H         138.3531  141.4065  154.3581 H       1  UNL1        0.1672
     33 C         134.2124  140.2710  156.4876 C.ar    1  UNL1        0.1006
     34 C         133.1081  141.0003  155.7814 C.ar    1  UNL1        0.0230
     35 C         131.6778  140.6374  156.0500 C.ar    1  UNL1        0.0328
     36 C         131.3516  139.5451  157.0249 C.ar    1  UNL1        0.1592
     37 F         129.9211  139.1821  157.2936 F       1  UNL1       -0.2025
     38 C         132.4558  138.8157  157.7311 C.ar    1  UNL1        0.1284
     39 N         133.8862  139.1787  157.4625 N.ar    1  UNL1       -0.2399
     40 N         138.4457  143.2398  162.2385 N.ar    1  UNL1       -0.2497
     41 C         139.3464  143.5412  161.0774 C.ar    1  UNL1        0.0944
     42 C         139.7870  142.2369  160.4818 C.ar    1  UNL1        0.0439
     43 C         139.1586  141.1294  161.2748 C.ar    1  UNL1        0.1194
     44 N         138.3297  141.7493  162.3605 N.ar    1  UNL1       -0.1679
     45 C         137.8730  144.1228  164.6138 C.3     1  UNL1        0.0284
     46 C         137.7783  144.2514  163.1224 C.3     1  UNL1        0.1276
@<TRIPOS>BOND
     1    45    46    1
     2    46    40    1
     3    40    41   ar
     4    41    42   ar
     5     1    42    1
     6     1    15    1
     7    15    16   ar
     8    16    17   ar
     9    17    21    1
    10    21    22    1
    11    22    23   am
    12    22    24    2
    13    17    18   ar
    14    18    19    2
    15    18    20   ar
    16     1     2    1
    17     2     3    1
    18     3    27    1
    19    27    28   ar
    20    28    29   ar
    21    29    33    1
    22    33    34   ar
    23    34    35   ar
    24    35    36   ar
    25    36    37    1
    26    36    38   ar
    27    38    39   ar
    28    29    30   ar
    29    30    31   ar
    30     3     4    1
    31     4     5    1
    32     5     6    2
    33     6     7    1
    34     7     8    2
    35     8     9    1
    36     9    10    1
    37    10    11    2
    38    11    12    1
    39    12    13    2
    40    42    43   ar
    41    43    44   ar
    42    44    40   ar
    43     6     1    1
    44    13     8    1
    45    20    15   ar
    46    31    27   ar
    47    13     5    1
    48    39    33   ar
    49    23    25    1
    50    23    26    1
    51     2    14    1
    52    31    32    1
@<TRIPOS>MOLECULE
*****
 46 52 0 0 0
SMALL
GASTEIGER

@<TRIPOS>ATOM
      1 C         140.6907  139.4313  159.2571 C.3     1  UNL1        0.1707
      2 N         141.5796  138.3510  158.7161 N.3     1  UNL1       -0.2797
      3 C         141.6438  138.1026  157.2382 C.3     1  UNL1        0.1167
      4 C         140.8190  138.9345  156.3013 C.3     1  UNL1        0.0511
      5 C         139.9301  140.0148  156.8423 C.2     1  UNL1       -0.0037
      6 C         139.8660  140.2633  158.3202 C.2     1  UNL1        0.0800
      7 N         138.9052  141.3900  158.5595 N.2     1  UNL1       -0.2519
      8 C         138.3755  141.8380  157.2295 C.2     1  UNL1        0.0627
      9 C         137.3983  142.9100  156.8478 C.3     1  UNL1        0.0717
     10 C         137.0545  143.1320  155.4047 C.2     1  UNL1       -0.0198
     11 C         137.6879  142.2821  154.3434 C.2     1  UNL1       -0.0042
     12 C         138.6652  141.2101  154.7252 C.2     1  UNL1        0.0006
     13 C         139.0090  140.9880  156.1682 C.2     1  UNL1        0.0111
     14 H         141.2785  137.4778  159.1487 H       1  UNL1        0.1246
     15 C         140.0056  140.3314  160.2423 C.ar    1  UNL1        0.2494
     16 N         140.5849  141.5725  160.8538 N.ar    1  UNL1       -0.1281
     17 N         139.5581  142.1564  161.7783 N.ar    1  UNL1       -0.1735
     18 C         138.3442  141.2761  161.7382 C.ar    1  UNL1        0.4393
     19 O         137.0764  141.4868  162.5117 O.2     1  UNL1       -0.2210
     20 O         138.6208  140.1482  160.7889 O.2     1  UNL1       -0.3896
     21 C         139.7173  143.4019  162.5989 C.3     1  UNL1        0.2180
     22 C         138.8208  144.5798  162.3559 C.2     1  UNL1        0.2445
     23 N         137.3875  144.5348  162.7959 N.am    1  UNL1       -0.3272
     24 O         139.3577  145.8027  161.6730 O.2     1  UNL1       -0.2732
     25 H         137.0352  143.7322  163.2441 H       1  UNL1        0.1450
     26 H         136.7992  145.3079  162.6364 H       1  UNL1        0.1450
     27 C         142.5327  137.0222  156.6972 C.ar    1  UNL1        0.1319
     28 N         142.5606  135.5932  157.1522 N.ar    1  UNL1       -0.2282
     29 C         143.5949  134.8690  156.3424 C.ar    1  UNL1        0.1171
     30 C         144.2062  135.8504  155.3869 C.ar    1  UNL1        0.0942
     31 N         143.5497  137.1812  155.6061 N.ar    1  UNL1       -0.3385
     32 H         143.7510  138.0129  155.1194 H       1  UNL1        0.1672
     33 C         143.9547  133.4180  156.4664 C.ar    1  UNL1        0.1006
     34 C         143.6702  132.4754  155.3348 C.ar    1  UNL1        0.0230
     35 C         144.0299  131.0245  155.4587 C.ar    1  UNL1        0.0328
     36 C         144.6742  130.5162  156.7143 C.ar    1  UNL1        0.1592
     37 F         145.0340  129.0652  156.8382 F       1  UNL1       -0.2025
     38 C         144.9587  131.4588  157.8459 C.ar    1  UNL1        0.1284
     39 N         144.5989  132.9097  157.7220 N.ar    1  UNL1       -0.2399
     40 N         141.5128  137.8306  162.6962 N.ar    1  UNL1       -0.2497
     41 C         140.5418  138.1500  161.5983 C.ar    1  UNL1        0.0944
     42 C         141.2775  138.9121  160.5361 C.ar    1  UNL1        0.0439
     43 C         142.7031  139.0636  160.9776 C.ar    1  UNL1        0.1194
     44 N         142.8484  138.3952  162.3126 N.ar    1  UNL1       -0.1679
     45 C         140.0431  137.4953  164.8122 C.3     1  UNL1        0.0284
     46 C         141.2024  137.0786  163.9564 C.3     1  UNL1        0.1276
@<TRIPOS>BOND
     1    45    46    1
     2    46    40    1
     3    40    41   ar
     4    41    42   ar
     5     1    42    1
     6     1    15    1
     7    15    16   ar
     8    16    17   ar
     9    17    21    1
    10    21    22    1
    11    22    23   am
    12    22    24    2
    13    17    18   ar
    14    18    19    2
    15    18    20   ar
    16     1     2    1
    17     2     3    1
    18     3    27    1
    19    27    28   ar
    20    28    29   ar
    21    29    33    1
    22    33    34   ar
    23    34    35   ar
    24    35    36   ar
    25    36    37    1
    26    36    38   ar
    27    38    39   ar
    28    29    30   ar
    29    30    31   ar
    30     3     4    1
    31     4     5    1
    32     5     6    2
    33     6     7    1
    34     7     8    2
    35     8     9    1
    36     9    10    1
    37    10    11    2
    38    11    12    1
    39    12    13    2
    40    42    43   ar
    41    43    44   ar
    42    44    40   ar
    43     6     1    1
    44    13     8    1
    45    20    15   ar
    46    31    27   ar
    47    13     5    1
    48    39    33   ar
    49    23    25    1
    50    23    26    1
    51     2    14    1
    52    31    32    1
@<TRIPOS>MOLECULE
*****
 46 52 0 0 0
SMALL
GASTEIGER

@<TRIPOS>ATOM
      1 C         142.3107  140.8214  160.4648 C.3     1  UNL1        0.1707
      2 N         142.5625  139.8527  159.3475 N.3     1  UNL1       -0.2797
      3 C         142.0538  138.4451  159.4464 C.3     1  UNL1        0.1167
      4 C         141.2933  138.0061  160.6626 C.3     1  UNL1        0.0511
      5 C         141.0416  138.9748  161.7799 C.2     1  UNL1       -0.0037
      6 C         141.5503  140.3824  161.6810 C.2     1  UNL1        0.0800
      7 N         141.1517  141.1082  162.9317 N.2     1  UNL1       -0.2519
      8 C         140.3967  140.1492  163.8036 C.2     1  UNL1        0.0627
      9 C         139.7624  140.3062  165.1537 C.3     1  UNL1        0.0717
     10 C         139.0600  139.1446  165.7920 C.2     1  UNL1       -0.0198
     11 C         138.9919  137.8261  165.0801 C.2     1  UNL1       -0.0042
     12 C         139.6263  137.6691  163.7300 C.2     1  UNL1        0.0006
     13 C         140.3286  138.8306  163.0917 C.2     1  UNL1        0.0111
     14 H         143.5742  139.7928  159.2321 H       1  UNL1        0.1246
     15 C         142.3248  142.0963  161.2551 C.ar    1  UNL1        0.2494
     16 N         141.1860  143.0633  161.3887 N.ar    1  UNL1       -0.1281
     17 N         141.6376  144.1927  162.2668 N.ar    1  UNL1       -0.1735
     18 C         143.0554  143.9235  162.6757 C.ar    1  UNL1        0.4393
     19 O         143.9002  144.7966  163.5555 O.2     1  UNL1       -0.2210
     20 O         143.4801  142.6278  162.0505 O.2     1  UNL1       -0.3896
     21 C         140.8156  145.3822  162.6657 C.3     1  UNL1        0.2180
     22 C         139.4449  145.5747  162.0874 C.2     1  UNL1        0.2445
     23 N         138.3401  144.6252  162.4446 N.am    1  UNL1       -0.3272
     24 O         139.1792  146.7168  161.1519 O.2     1  UNL1       -0.2732
     25 H         138.5145  143.8756  163.0586 H       1  UNL1        0.1450
     26 H         137.4405  144.7515  162.0650 H       1  UNL1        0.1450
     27 C         142.3055  137.4764  158.3291 C.ar    1  UNL1        0.1319
     28 N         142.9484  136.1275  158.4599 N.ar    1  UNL1       -0.2282
     29 C         142.9988  135.5039  157.0966 C.ar    1  UNL1        0.1171
     30 C         142.3870  136.4675  156.1233 C.ar    1  UNL1        0.0942
     31 N         141.9586  137.6865  156.8850 N.ar    1  UNL1       -0.3385
     32 H         141.5257  138.4845  156.5041 H       1  UNL1        0.1672
     33 C         143.5620  134.1538  156.7648 C.ar    1  UNL1        0.1006
     34 C         143.2474  133.5135  155.4453 C.ar    1  UNL1        0.0230
     35 C         143.8105  132.1634  155.1136 C.ar    1  UNL1        0.0328
     36 C         144.6884  131.4537  156.1013 C.ar    1  UNL1        0.1592
     37 F         145.2516  130.1036  155.7695 F       1  UNL1       -0.2025
     38 C         145.0030  132.0940  157.4207 C.ar    1  UNL1        0.1284
     39 N         144.4398  133.4440  157.7525 N.ar    1  UNL1       -0.2399
     40 N         144.8636  142.6346  158.1712 N.ar    1  UNL1       -0.2497
     41 C         144.5128  141.5330  159.1270 C.ar    1  UNL1        0.0944
     42 C         143.0760  141.7031  159.5231 C.ar    1  UNL1        0.0439
     43 C         142.5390  142.9099  158.8122 C.ar    1  UNL1        0.1194
     44 N         143.6438  143.4856  157.9767 N.ar    1  UNL1       -0.1679
     45 C         146.6113  142.0003  156.3566 C.3     1  UNL1        0.0284
     46 C         146.1998  142.8479  157.5237 C.3     1  UNL1        0.1276
@<TRIPOS>BOND
     1    45    46    1
     2    46    40    1
     3    40    41   ar
     4    41    42   ar
     5     1    42    1
     6     1    15    1
     7    15    16   ar
     8    16    17   ar
     9    17    21    1
    10    21    22    1
    11    22    23   am
    12    22    24    2
    13    17    18   ar
    14    18    19    2
    15    18    20   ar
    16     1     2    1
    17     2     3    1
    18     3    27    1
    19    27    28   ar
    20    28    29   ar
    21    29    33    1
    22    33    34   ar
    23    34    35   ar
    24    35    36   ar
    25    36    37    1
    26    36    38   ar
    27    38    39   ar
    28    29    30   ar
    29    30    31   ar
    30     3     4    1
    31     4     5    1
    32     5     6    2
    33     6     7    1
    34     7     8    2
    35     8     9    1
    36     9    10    1
    37    10    11    2
    38    11    12    1
    39    12    13    2
    40    42    43   ar
    41    43    44   ar
    42    44    40   ar
    43     6     1    1
    44    13     8    1
    45    20    15   ar
    46    31    27   ar
    47    13     5    1
    48    39    33   ar
    49    23    25    1
    50    23    26    1
    51     2    14    1
    52    31    32    1
@<TRIPOS>MOLECULE
*****
 46 52 0 0 0
SMALL
GASTEIGER

@<TRIPOS>ATOM
      1 C         140.0605  141.4022  159.6251 C.3     1  UNL1        0.1707
      2 N         140.0525  140.5417  158.3965 N.3     1  UNL1       -0.2797
      3 C         139.7975  139.0682  158.5145 C.3     1  UNL1        0.1167
      4 C         139.5505  138.4553  159.8611 C.3     1  UNL1        0.0511
      5 C         139.5585  139.3157  161.0897 C.2     1  UNL1       -0.0037
      6 C         139.8135  140.7892  160.9717 C.2     1  UNL1        0.0800
      7 N         139.7610  141.3804  162.3493 N.2     1  UNL1       -0.2519
      8 C         139.4736  140.2724  163.3186 C.2     1  UNL1        0.0627
      9 C         139.3097  140.2605  164.8096 C.3     1  UNL1        0.0717
     10 C         139.0207  138.9725  165.5220 C.2     1  UNL1       -0.0198
     11 C         138.8955  137.6965  164.7435 C.2     1  UNL1       -0.0042
     12 C         139.0594  137.7084  163.2526 C.2     1  UNL1        0.0006
     13 C         139.3484  138.9963  162.5401 C.2     1  UNL1        0.0111
     14 H         140.9666  140.6480  157.9566 H       1  UNL1        0.1246
     15 C         140.1671  142.6228  160.4905 C.ar    1  UNL1        0.2494
     16 N         141.3825  143.0592  161.2535 N.ar    1  UNL1       -0.1281
     17 N         141.0434  144.3274  161.9794 N.ar    1  UNL1       -0.1735
     18 C         139.6185  144.6747  161.6649 C.ar    1  UNL1        0.4393
     19 O         138.8671  145.8663  162.1802 O.2     1  UNL1       -0.2210
     20 O         139.0769  143.6211  160.7447 O.2     1  UNL1       -0.3896
     21 C         141.9672  145.1106  162.8642 C.3     1  UNL1        0.2180
     22 C         143.3458  144.5946  163.1531 C.2     1  UNL1        0.2445
     23 N         144.2093  144.0943  162.0333 N.am    1  UNL1       -0.3272
     24 O         143.8608  144.5790  164.5619 O.2     1  UNL1       -0.2732
     25 H         143.8713  144.1046  161.1087 H       1  UNL1        0.1450
     26 H         145.1140  143.7557  162.2229 H       1  UNL1        0.1450
     27 C         139.7895  138.2077  157.2858 C.ar    1  UNL1        0.1319
     28 N         140.7473  137.0936  156.9836 N.ar    1  UNL1       -0.2282
     29 C         140.3721  136.5075  155.6547 C.ar    1  UNL1        0.1171
     30 C         139.1825  137.2594  155.1358 C.ar    1  UNL1        0.0942
     31 N         138.8224  138.3102  156.1439 N.ar    1  UNL1       -0.3385
     32 H         138.0814  138.9541  156.0691 H       1  UNL1        0.1672
     33 C         141.0650  135.3694  154.9658 C.ar    1  UNL1        0.1006
     34 C         140.9910  135.2393  153.4733 C.ar    1  UNL1        0.0230
     35 C         141.6838  134.1012  152.7844 C.ar    1  UNL1        0.0328
     36 C         142.4507  133.0932  153.5880 C.ar    1  UNL1        0.1592
     37 F         143.1436  131.9550  152.8991 F       1  UNL1       -0.2025
     38 C         142.5247  133.2232  155.0805 C.ar    1  UNL1        0.1284
     39 N         141.8319  134.3613  155.7694 N.ar    1  UNL1       -0.2399
     40 N         140.0453  144.1423  156.8762 N.ar    1  UNL1       -0.2497
     41 C         139.3200  143.2227  157.8134 C.ar    1  UNL1        0.0944
     42 C         140.3445  142.4390  158.5791 C.ar    1  UNL1        0.0439
     43 C         141.7029  142.8743  158.1151 C.ar    1  UNL1        0.1194
     44 N         141.5180  143.9270  157.0626 N.ar    1  UNL1       -0.1679
     45 C         138.0556  144.8127  155.3459 C.3     1  UNL1        0.0284
     46 C         139.4095  145.1078  155.9203 C.3     1  UNL1        0.1276
@<TRIPOS>BOND
     1    45    46    1
     2    46    40    1
     3    40    41   ar
     4    41    42   ar
     5     1    42    1
     6     1    15    1
     7    15    16   ar
     8    16    17   ar
     9    17    21    1
    10    21    22    1
    11    22    23   am
    12    22    24    2
    13    17    18   ar
    14    18    19    2
    15    18    20   ar
    16     1     2    1
    17     2     3    1
    18     3    27    1
    19    27    28   ar
    20    28    29   ar
    21    29    33    1
    22    33    34   ar
    23    34    35   ar
    24    35    36   ar
    25    36    37    1
    26    36    38   ar
    27    38    39   ar
    28    29    30   ar
    29    30    31   ar
    30     3     4    1
    31     4     5    1
    32     5     6    2
    33     6     7    1
    34     7     8    2
    35     8     9    1
    36     9    10    1
    37    10    11    2
    38    11    12    1
    39    12    13    2
    40    42    43   ar
    41    43    44   ar
    42    44    40   ar
    43     6     1    1
    44    13     8    1
    45    20    15   ar
    46    31    27   ar
    47    13     5    1
    48    39    33   ar
    49    23    25    1
    50    23    26    1
    51     2    14    1
    52    31    32    1
