@<TRIPOS>MOLECULE
*****
 35 39 0 0 0
SMALL
GASTEIGER

@<TRIPOS>ATOM
      1 N         141.5027  140.0396  163.3385 N.3     1  UNL1       -0.2679
      2 C         140.2650  140.7703  162.9092 C.3     1  UNL1        0.0978
      3 C         139.4977  140.3044  161.7075 C.3     1  UNL1        0.0224
      4 C         138.2601  141.0352  161.2783 C.3     1  UNL1        0.0065
      5 C         137.7897  142.2318  162.0508 C.3     1  UNL1        0.0277
      6 C         138.5570  142.6977  163.2525 C.ar    1  UNL1       -0.0073
      7 C         138.0867  143.8944  164.0250 C.ar    1  UNL1       -0.0015
      8 C         138.8540  144.3603  165.2267 C.ar    1  UNL1        0.0203
      9 C         140.0917  143.6296  165.6560 C.ar    1  UNL1        0.0985
     10 N         140.5620  142.4329  164.8835 N.ar    1  UNL1       -0.2471
     11 C         139.7947  141.9670  163.6817 C.ar    1  UNL1        0.0695
     12 C         142.8272  140.3820  162.7233 C.3     1  UNL1        0.0725
     13 C         144.0079  140.6760  163.6005 C.3     1  UNL1        0.0188
     14 C         144.5090  142.0832  163.7369 C.3     1  UNL1        0.0188
     15 C         144.1805  143.1014  162.6856 C.3     1  UNL1        0.0721
     16 C         143.5554  145.1407  164.1691 C.3     1  UNL1        0.0896
     17 N         143.2586  144.2404  163.0067 N.3     1  UNL1       -0.2726
     18 C         142.0399  144.4788  162.1653 C.3     1  UNL1        0.0625
     19 C         141.7645  143.6032  160.9790 C.3     1  UNL1        0.0481
     20 C         140.5458  143.8417  160.1376 C.3     1  UNL1        0.1435
     21 O         139.6026  144.9558  160.4825 O.3     1  UNL1       -0.3537
     22 C         139.8780  145.8315  161.6689 C.3     1  UNL1        0.1435
     23 C         141.0967  145.5930  162.5103 C.3     1  UNL1        0.0481
     24 C         141.4158  138.9664  164.3828 C.3     1  UNL1        0.0886
     25 C         141.0873  139.3255  165.8017 C.3     1  UNL1        0.0764
     26 C         142.1886  139.5076  166.8036 C.3     1  UNL1        0.0626
     27 C         141.8601  139.8667  168.2224 C.ar    1  UNL1        0.0577
     28 N         142.9615  140.0489  169.2243 N.ar    1  UNL1       -0.2484
     29 C         142.6329  140.4079  170.6431 C.ar    1  UNL1        0.0984
     30 C         141.2029  140.5848  171.0601 C.ar    1  UNL1        0.0204
     31 C         140.1015  140.4026  170.0582 C.ar    1  UNL1       -0.0002
     32 C         140.4301  140.0436  168.6394 C.ar    1  UNL1        0.0073
     33 C         139.3287  139.8614  167.6375 C.3     1  UNL1        0.0968
     34 N         139.6573  139.5023  166.2187 N.3     1  UNL1       -0.2934
     35 H         139.2681  140.2394  165.6307 H       1  UNL1        0.1236
@<TRIPOS>BOND
     1    16    17    1
     2    17    15    1
     3    15    14    1
     4    14    13    1
     5    13    12    1
     6    12     1    1
     7     1    24    1
     8    25    24    1
     9    25    26    1
    10    26    27    1
    11    27    28   ar
    12    28    29   ar
    13    29    30   ar
    14    30    31   ar
    15    31    32   ar
    16    32    33    1
    17    33    34    1
    18     2     1    1
    19     2     3    1
    20     3     4    1
    21     4     5    1
    22     5     6    1
    23     6     7   ar
    24     7     8   ar
    25     8     9   ar
    26     9    10   ar
    27    10    11   ar
    28    17    18    1
    29    18    19    1
    30    19    20    1
    31    20    21    1
    32    21    22    1
    33    22    23    1
    34    34    25    1
    35    11     2    1
    36    23    18    1
    37    32    27   ar
    38    11     6   ar
    39    34    35    1
@<TRIPOS>MOLECULE
*****
 35 39 0 0 0
SMALL
GASTEIGER

@<TRIPOS>ATOM
      1 N         139.0436  140.2238  163.6811 N.3     1  UNL1       -0.2679
      2 C         138.9836  141.7222  163.6465 C.3     1  UNL1        0.0978
      3 C         137.6712  142.4155  163.4304 C.3     1  UNL1        0.0224
      4 C         137.6112  143.9139  163.3958 C.3     1  UNL1        0.0065
      5 C         138.8637  144.7190  163.5772 C.3     1  UNL1        0.0277
      6 C         140.1762  144.0257  163.7932 C.ar    1  UNL1       -0.0073
      7 C         141.4288  144.8308  163.9747 C.ar    1  UNL1       -0.0015
      8 C         142.7413  144.1375  164.1907 C.ar    1  UNL1        0.0203
      9 C         142.8012  142.6391  164.2254 C.ar    1  UNL1        0.0985
     10 N         141.5487  141.8340  164.0440 N.ar    1  UNL1       -0.2471
     11 C         140.2361  142.5273  163.8279 C.ar    1  UNL1        0.0695
     12 C         139.3338  139.4556  162.4259 C.3     1  UNL1        0.0725
     13 C         140.4980  138.5109  162.3770 C.3     1  UNL1        0.0188
     14 C         141.8448  139.0027  161.9361 C.3     1  UNL1        0.0188
     15 C         141.9818  139.7617  160.6496 C.3     1  UNL1        0.0721
     16 C         143.9777  141.4077  160.8889 C.3     1  UNL1        0.0896
     17 N         142.5157  141.1635  160.6590 N.3     1  UNL1       -0.2726
     18 C         141.5875  142.3210  160.4385 C.3     1  UNL1        0.0625
     19 C         140.1347  142.0746  160.1586 C.3     1  UNL1        0.0481
     20 C         139.2065  143.2321  159.9381 C.3     1  UNL1        0.1435
     21 O         139.7312  144.6361  159.9975 O.3     1  UNL1       -0.3537
     22 C         141.1842  144.8825  160.2774 C.3     1  UNL1        0.1435
     23 C         142.1123  143.7250  160.4979 C.3     1  UNL1        0.0481
     24 C         138.8133  139.4936  164.9710 C.3     1  UNL1        0.0886
     25 C         139.7876  139.6430  166.1017 C.3     1  UNL1        0.0764
     26 C         139.3013  140.0449  167.4626 C.3     1  UNL1        0.0626
     27 C         140.2756  140.1943  168.5933 C.ar    1  UNL1        0.0577
     28 N         139.7893  140.5961  169.9542 N.ar    1  UNL1       -0.2484
     29 C         140.7635  140.7455  171.0848 C.ar    1  UNL1        0.0984
     30 C         142.2241  140.4930  170.8546 C.ar    1  UNL1        0.0204
     31 C         142.7104  140.0911  169.4938 C.ar    1  UNL1       -0.0002
     32 C         141.7361  139.9418  168.3631 C.ar    1  UNL1        0.0073
     33 C         142.2224  139.5399  167.0022 C.3     1  UNL1        0.0968
     34 N         141.2481  139.3905  165.8715 N.3     1  UNL1       -0.2934
     35 H         141.3317  138.4310  165.5356 H       1  UNL1        0.1236
@<TRIPOS>BOND
     1    16    17    1
     2    17    15    1
     3    15    14    1
     4    14    13    1
     5    13    12    1
     6    12     1    1
     7     1    24    1
     8    25    24    1
     9    25    26    1
    10    26    27    1
    11    27    28   ar
    12    28    29   ar
    13    29    30   ar
    14    30    31   ar
    15    31    32   ar
    16    32    33    1
    17    33    34    1
    18     2     1    1
    19     2     3    1
    20     3     4    1
    21     4     5    1
    22     5     6    1
    23     6     7   ar
    24     7     8   ar
    25     8     9   ar
    26     9    10   ar
    27    10    11   ar
    28    17    18    1
    29    18    19    1
    30    19    20    1
    31    20    21    1
    32    21    22    1
    33    22    23    1
    34    34    25    1
    35    11     2    1
    36    23    18    1
    37    32    27   ar
    38    11     6   ar
    39    34    35    1
@<TRIPOS>MOLECULE
*****
 35 39 0 0 0
SMALL
GASTEIGER

@<TRIPOS>ATOM
      1 N         142.6862  142.3530  162.7404 N.3     1  UNL1       -0.2679
      2 C         141.5387  143.3182  162.7017 C.3     1  UNL1        0.0978
      3 C         141.7288  144.6862  162.1165 C.3     1  UNL1        0.0224
      4 C         140.5812  145.6514  162.0778 C.3     1  UNL1        0.0065
      5 C         139.2437  145.2487  162.6244 C.3     1  UNL1        0.0277
      6 C         139.0537  143.8808  163.2096 C.ar    1  UNL1       -0.0073
      7 C         137.7161  143.4780  163.7562 C.ar    1  UNL1       -0.0015
      8 C         137.5261  142.1101  164.3415 C.ar    1  UNL1        0.0203
      9 C         138.6736  141.1448  164.3801 C.ar    1  UNL1        0.0985
     10 N         140.0111  141.5475  163.8336 N.ar    1  UNL1       -0.2471
     11 C         140.2012  142.9155  163.2483 C.ar    1  UNL1        0.0695
     12 C         142.8907  141.3853  161.6127 C.3     1  UNL1        0.0725
     13 C         144.1479  140.5701  161.5425 C.3     1  UNL1        0.0188
     14 C         144.2538  139.2871  162.3122 C.3     1  UNL1        0.0188
     15 C         143.7358  138.0110  161.7178 C.3     1  UNL1        0.0721
     16 C         142.1435  138.0081  159.6649 C.3     1  UNL1        0.0896
     17 N         142.3485  137.9570  161.1499 N.3     1  UNL1       -0.2726
     18 C         141.1662  137.8519  162.0670 C.3     1  UNL1        0.0625
     19 C         139.7850  138.1119  161.5429 C.3     1  UNL1        0.0481
     20 C         138.6027  138.0069  162.4601 C.3     1  UNL1        0.1435
     21 O         138.8016  137.6418  163.9013 O.3     1  UNL1       -0.3537
     22 C         140.1828  137.3818  164.4254 C.3     1  UNL1        0.1435
     23 C         141.3651  137.4869  163.5083 C.3     1  UNL1        0.0481
     24 C         143.6293  142.3554  163.9068 C.3     1  UNL1        0.0886
     25 C         143.2105  141.7446  165.2113 C.3     1  UNL1        0.0764
     26 C         143.3934  142.5076  166.4897 C.3     1  UNL1        0.0626
     27 C         142.9745  141.8969  167.7941 C.ar    1  UNL1        0.0577
     28 N         143.1575  142.6599  169.0725 N.ar    1  UNL1       -0.2484
     29 C         142.7386  142.0491  170.3769 C.ar    1  UNL1        0.0984
     30 C         142.1368  140.6754  170.4029 C.ar    1  UNL1        0.0204
     31 C         141.9538  139.9124  169.1245 C.ar    1  UNL1       -0.0002
     32 C         142.3727  140.5231  167.8201 C.ar    1  UNL1        0.0073
     33 C         142.1898  139.7602  166.5416 C.3     1  UNL1        0.0968
     34 N         142.6086  140.3709  165.2373 N.3     1  UNL1       -0.2934
     35 H         141.7777  140.4022  164.6465 H       1  UNL1        0.1236
@<TRIPOS>BOND
     1    16    17    1
     2    17    15    1
     3    15    14    1
     4    14    13    1
     5    13    12    1
     6    12     1    1
     7     1    24    1
     8    25    24    1
     9    25    26    1
    10    26    27    1
    11    27    28   ar
    12    28    29   ar
    13    29    30   ar
    14    30    31   ar
    15    31    32   ar
    16    32    33    1
    17    33    34    1
    18     2     1    1
    19     2     3    1
    20     3     4    1
    21     4     5    1
    22     5     6    1
    23     6     7   ar
    24     7     8   ar
    25     8     9   ar
    26     9    10   ar
    27    10    11   ar
    28    17    18    1
    29    18    19    1
    30    19    20    1
    31    20    21    1
    32    21    22    1
    33    22    23    1
    34    34    25    1
    35    11     2    1
    36    23    18    1
    37    32    27   ar
    38    11     6   ar
    39    34    35    1
@<TRIPOS>MOLECULE
*****
 35 39 0 0 0
SMALL
GASTEIGER

@<TRIPOS>ATOM
      1 N         140.4103  139.2436  163.8126 N.3     1  UNL1       -0.2679
      2 C         141.8424  139.2420  164.2588 C.3     1  UNL1        0.0978
      3 C         142.2948  138.2885  165.3247 C.3     1  UNL1        0.0224
      4 C         143.7269  138.2868  165.7709 C.3     1  UNL1        0.0065
      5 C         144.7066  139.2387  165.1512 C.3     1  UNL1        0.0277
      6 C         144.2542  140.1922  164.0853 C.ar    1  UNL1       -0.0073
      7 C         145.2340  141.1441  163.4656 C.ar    1  UNL1       -0.0015
      8 C         144.7816  142.0976  162.3997 C.ar    1  UNL1        0.0203
      9 C         143.3495  142.0993  161.9535 C.ar    1  UNL1        0.0985
     10 N         142.3698  141.1474  162.5732 N.ar    1  UNL1       -0.2471
     11 C         142.8221  140.1938  163.6391 C.ar    1  UNL1        0.0695
     12 C         139.9956  138.4349  162.6193 C.3     1  UNL1        0.0725
     13 C         139.6659  139.1205  161.3264 C.3     1  UNL1        0.0188
     14 C         138.2402  139.4444  160.9916 C.3     1  UNL1        0.0188
     15 C         137.6257  140.7212  161.4836 C.3     1  UNL1        0.0721
     16 C         138.6485  142.3859  159.7711 C.3     1  UNL1        0.0896
     17 N         138.2843  142.0350  161.1832 N.3     1  UNL1       -0.2726
     18 C         138.5788  142.9979  162.2951 C.3     1  UNL1        0.0625
     19 C         139.8657  143.7685  162.2987 C.3     1  UNL1        0.0481
     20 C         140.1602  144.7313  163.4106 C.3     1  UNL1        0.1435
     21 O         139.1678  144.9235  164.5188 O.3     1  UNL1       -0.3537
     22 C         137.8808  144.1529  164.5151 C.3     1  UNL1        0.1435
     23 C         137.5863  143.1901  163.4033 C.3     1  UNL1        0.0481
     24 C         139.3929  140.0540  164.5597 C.3     1  UNL1        0.0886
     25 C         139.7649  140.7173  165.8526 C.3     1  UNL1        0.0764
     26 C         139.6872  139.9496  167.1389 C.3     1  UNL1        0.0626
     27 C         140.0592  140.6129  168.4319 C.ar    1  UNL1        0.0577
     28 N         139.9816  139.8452  169.7182 N.ar    1  UNL1       -0.2484
     29 C         140.3535  140.5085  171.0111 C.ar    1  UNL1        0.0984
     30 C         140.8031  141.9395  171.0177 C.ar    1  UNL1        0.0204
     31 C         140.8808  142.7072  169.7314 C.ar    1  UNL1       -0.0002
     32 C         140.5088  142.0439  168.4385 C.ar    1  UNL1        0.0073
     33 C         140.5865  142.8116  167.1522 C.3     1  UNL1        0.0968
     34 N         140.2145  142.1483  165.8593 N.3     1  UNL1       -0.2934
     35 H         141.0339  142.2023  165.2542 H       1  UNL1        0.1236
@<TRIPOS>BOND
     1    16    17    1
     2    17    15    1
     3    15    14    1
     4    14    13    1
     5    13    12    1
     6    12     1    1
     7     1    24    1
     8    25    24    1
     9    25    26    1
    10    26    27    1
    11    27    28   ar
    12    28    29   ar
    13    29    30   ar
    14    30    31   ar
    15    31    32   ar
    16    32    33    1
    17    33    34    1
    18     2     1    1
    19     2     3    1
    20     3     4    1
    21     4     5    1
    22     5     6    1
    23     6     7   ar
    24     7     8   ar
    25     8     9   ar
    26     9    10   ar
    27    10    11   ar
    28    17    18    1
    29    18    19    1
    30    19    20    1
    31    20    21    1
    32    21    22    1
    33    22    23    1
    34    34    25    1
    35    11     2    1
    36    23    18    1
    37    32    27   ar
    38    11     6   ar
    39    34    35    1
@<TRIPOS>MOLECULE
*****
 35 39 0 0 0
SMALL
GASTEIGER

@<TRIPOS>ATOM
      1 N         140.2122  142.2594  163.5876 N.3     1  UNL1       -0.2679
      2 C         141.4955  143.0255  163.7157 C.3     1  UNL1        0.0978
      3 C         141.4694  144.5224  163.8066 C.3     1  UNL1        0.0224
      4 C         142.7527  145.2885  163.9347 C.3     1  UNL1        0.0065
      5 C         144.0620  144.5576  163.9718 C.3     1  UNL1        0.0277
      6 C         144.0880  143.0606  163.8809 C.ar    1  UNL1       -0.0073
      7 C         145.3974  142.3296  163.9180 C.ar    1  UNL1       -0.0015
      8 C         145.4235  140.8326  163.8271 C.ar    1  UNL1        0.0203
      9 C         144.1402  140.0665  163.6990 C.ar    1  UNL1        0.0985
     10 N         142.8309  140.7975  163.6619 N.ar    1  UNL1       -0.2471
     11 C         142.8048  142.2945  163.7528 C.ar    1  UNL1        0.0695
     12 C         139.6774  141.9139  162.2295 C.3     1  UNL1        0.0725
     13 C         138.2151  141.6326  162.0486 C.3     1  UNL1        0.0188
     14 C         137.7324  140.9394  160.8091 C.3     1  UNL1        0.0188
     15 C         137.7334  139.4411  160.7390 C.3     1  UNL1        0.0721
     16 C         139.8245  138.4308  159.5743 C.3     1  UNL1        0.0896
     17 N         139.0278  138.6873  160.8191 N.3     1  UNL1       -0.2726
     18 C         139.5255  138.1901  162.1439 C.3     1  UNL1        0.0625
     19 C         140.9617  137.7878  162.3025 C.3     1  UNL1        0.0481
     20 C         141.4594  137.2906  163.6274 C.3     1  UNL1        0.1435
     21 O         140.5208  137.1957  164.7935 O.3     1  UNL1       -0.3537
     22 C         139.0844  137.5980  164.6349 C.3     1  UNL1        0.1435
     23 C         138.5868  138.0952  163.3101 C.3     1  UNL1        0.0481
     24 C         139.4638  141.8389  164.8176 C.3     1  UNL1        0.0886
     25 C         140.2127  141.3338  166.0152 C.3     1  UNL1        0.0764
     26 C         140.1739  142.1021  167.3029 C.3     1  UNL1        0.0626
     27 C         140.9228  141.5971  168.5005 C.ar    1  UNL1        0.0577
     28 N         140.8839  142.3654  169.7882 N.ar    1  UNL1       -0.2484
     29 C         141.6328  141.8603  170.9857 C.ar    1  UNL1        0.0984
     30 C         142.4205  140.5870  170.8956 C.ar    1  UNL1        0.0204
     31 C         142.4593  139.8187  169.6079 C.ar    1  UNL1       -0.0002
     32 C         141.7105  140.3237  168.4104 C.ar    1  UNL1        0.0073
     33 C         141.7493  139.5554  167.1226 C.3     1  UNL1        0.0968
     34 N         141.0004  140.0605  165.9251 N.3     1  UNL1       -0.2934
     35 H         140.3445  139.3268  165.6570 H       1  UNL1        0.1236
@<TRIPOS>BOND
     1    16    17    1
     2    17    15    1
     3    15    14    1
     4    14    13    1
     5    13    12    1
     6    12     1    1
     7     1    24    1
     8    25    24    1
     9    25    26    1
    10    26    27    1
    11    27    28   ar
    12    28    29   ar
    13    29    30   ar
    14    30    31   ar
    15    31    32   ar
    16    32    33    1
    17    33    34    1
    18     2     1    1
    19     2     3    1
    20     3     4    1
    21     4     5    1
    22     5     6    1
    23     6     7   ar
    24     7     8   ar
    25     8     9   ar
    26     9    10   ar
    27    10    11   ar
    28    17    18    1
    29    18    19    1
    30    19    20    1
    31    20    21    1
    32    21    22    1
    33    22    23    1
    34    34    25    1
    35    11     2    1
    36    23    18    1
    37    32    27   ar
    38    11     6   ar
    39    34    35    1
@<TRIPOS>MOLECULE
*****
 35 39 0 0 0
SMALL
GASTEIGER

@<TRIPOS>ATOM
      1 N         138.5721  140.3106  163.8577 N.3     1  UNL1       -0.2679
      2 C         138.8203  141.7686  164.1076 C.3     1  UNL1        0.0978
      3 C         137.6832  142.6677  164.4932 C.3     1  UNL1        0.0224
      4 C         137.9314  144.1257  164.7431 C.3     1  UNL1        0.0065
      5 C         139.3167  144.6847  164.6075 C.3     1  UNL1        0.0277
      6 C         140.4537  143.7857  164.2219 C.ar    1  UNL1       -0.0073
      7 C         141.8391  144.3447  164.0862 C.ar    1  UNL1       -0.0015
      8 C         142.9762  143.4457  163.7006 C.ar    1  UNL1        0.0203
      9 C         142.7280  141.9876  163.4507 C.ar    1  UNL1        0.0985
     10 N         141.3427  141.4286  163.5863 N.ar    1  UNL1       -0.2471
     11 C         140.2055  142.3276  163.9720 C.ar    1  UNL1        0.0695
     12 C         138.2548  139.8304  162.4726 C.3     1  UNL1        0.0725
     13 C         138.2600  140.7959  161.3245 C.3     1  UNL1        0.0188
     14 C         138.7468  140.3550  159.9760 C.3     1  UNL1        0.0188
     15 C         139.1722  138.9328  159.7604 C.3     1  UNL1        0.0721
     16 C         140.9180  138.2937  157.9455 C.3     1  UNL1        0.0896
     17 N         140.5875  138.6242  159.3708 N.3     1  UNL1       -0.2726
     18 C         141.6723  138.6459  160.4066 C.3     1  UNL1        0.0625
     19 C         141.4422  138.0131  161.7469 C.3     1  UNL1        0.0481
     20 C         142.5269  138.0349  162.7827 C.3     1  UNL1        0.1435
     21 O         143.8417  138.6895  162.4782 O.3     1  UNL1       -0.3537
     22 C         144.0718  139.3223  161.1378 C.3     1  UNL1        0.1435
     23 C         142.9871  139.3006  160.1020 C.3     1  UNL1        0.0481
     24 C         138.6412  139.3326  164.9930 C.3     1  UNL1        0.0886
     25 C         139.6486  139.5244  166.0878 C.3     1  UNL1        0.0764
     26 C         139.1979  139.9350  167.4583 C.3     1  UNL1        0.0626
     27 C         140.2052  140.1267  168.5531 C.ar    1  UNL1        0.0577
     28 N         139.7545  140.5373  169.9235 N.ar    1  UNL1       -0.2484
     29 C         140.7619  140.7290  171.0182 C.ar    1  UNL1        0.0984
     30 C         142.2200  140.5101  170.7425 C.ar    1  UNL1        0.0204
     31 C         142.6707  140.0995  169.3720 C.ar    1  UNL1       -0.0002
     32 C         141.6633  139.9078  168.2773 C.ar    1  UNL1        0.0073
     33 C         142.1141  139.4972  166.9068 C.3     1  UNL1        0.0968
     34 N         141.1067  139.3055  165.8120 N.3     1  UNL1       -0.2934
     35 H         141.2038  138.3433  165.4877 H       1  UNL1        0.1236
@<TRIPOS>BOND
     1    16    17    1
     2    17    15    1
     3    15    14    1
     4    14    13    1
     5    13    12    1
     6    12     1    1
     7     1    24    1
     8    25    24    1
     9    25    26    1
    10    26    27    1
    11    27    28   ar
    12    28    29   ar
    13    29    30   ar
    14    30    31   ar
    15    31    32   ar
    16    32    33    1
    17    33    34    1
    18     2     1    1
    19     2     3    1
    20     3     4    1
    21     4     5    1
    22     5     6    1
    23     6     7   ar
    24     7     8   ar
    25     8     9   ar
    26     9    10   ar
    27    10    11   ar
    28    17    18    1
    29    18    19    1
    30    19    20    1
    31    20    21    1
    32    21    22    1
    33    22    23    1
    34    34    25    1
    35    11     2    1
    36    23    18    1
    37    32    27   ar
    38    11     6   ar
    39    34    35    1
@<TRIPOS>MOLECULE
*****
 35 39 0 0 0
SMALL
GASTEIGER

@<TRIPOS>ATOM
      1 N         142.6348  141.6310  163.3508 N.3     1  UNL1       -0.2679
      2 C         141.8185  140.4712  162.8624 C.3     1  UNL1        0.0978
      3 C         142.1652  139.8038  161.5646 C.3     1  UNL1        0.0224
      4 C         141.3490  138.6440  161.0761 C.3     1  UNL1        0.0065
      5 C         140.1860  138.1516  161.8855 C.3     1  UNL1        0.0277
      6 C         139.8393  138.8190  163.1832 C.ar    1  UNL1       -0.0073
      7 C         138.6763  138.3267  163.9926 C.ar    1  UNL1       -0.0015
      8 C         138.3296  138.9941  165.2904 C.ar    1  UNL1        0.0203
      9 C         139.1458  140.1539  165.7789 C.ar    1  UNL1        0.0985
     10 N         140.3088  140.6462  164.9696 N.ar    1  UNL1       -0.2471
     11 C         140.6556  139.9788  163.6717 C.ar    1  UNL1        0.0695
     12 C         142.3780  143.0078  162.8140 C.3     1  UNL1        0.0725
     13 C         141.6907  144.0304  163.6696 C.3     1  UNL1        0.0188
     14 C         141.3246  145.3662  163.0939 C.3     1  UNL1        0.0188
     15 C         140.0166  145.5428  162.3812 C.3     1  UNL1        0.0721
     16 C         140.0666  144.9633  159.8490 C.3     1  UNL1        0.0896
     17 N         139.6493  144.6282  161.2503 N.3     1  UNL1       -0.2726
     18 C         138.8648  143.3787  161.5208 C.3     1  UNL1        0.0625
     19 C         138.1002  143.2360  162.8034 C.3     1  UNL1        0.0481
     20 C         137.3157  141.9865  163.0739 C.3     1  UNL1        0.1435
     21 O         137.2957  140.8796  162.0618 O.3     1  UNL1       -0.3537
     22 C         138.0603  141.0223  160.7791 C.3     1  UNL1        0.1435
     23 C         138.8448  142.2718  160.5086 C.3     1  UNL1        0.0481
     24 C         143.7078  141.4139  164.3762 C.3     1  UNL1        0.0886
     25 C         143.3397  141.0107  165.7734 C.3     1  UNL1        0.0764
     26 C         143.0905  142.0601  166.8158 C.3     1  UNL1        0.0626
     27 C         142.7224  141.6569  168.2129 C.ar    1  UNL1        0.0577
     28 N         142.4732  142.7062  169.2554 N.ar    1  UNL1       -0.2484
     29 C         142.1051  142.3030  170.6524 C.ar    1  UNL1        0.0984
     30 C         141.9861  140.8504  171.0070 C.ar    1  UNL1        0.0204
     31 C         142.2352  139.8010  169.9646 C.ar    1  UNL1       -0.0002
     32 C         142.6034  140.2043  168.5676 C.ar    1  UNL1        0.0073
     33 C         142.8525  139.1549  167.5250 C.3     1  UNL1        0.0968
     34 N         143.2207  139.5581  166.1280 N.3     1  UNL1       -0.2934
     35 H         142.5122  139.1614  165.5107 H       1  UNL1        0.1236
@<TRIPOS>BOND
     1    16    17    1
     2    17    15    1
     3    15    14    1
     4    14    13    1
     5    13    12    1
     6    12     1    1
     7     1    24    1
     8    25    24    1
     9    25    26    1
    10    26    27    1
    11    27    28   ar
    12    28    29   ar
    13    29    30   ar
    14    30    31   ar
    15    31    32   ar
    16    32    33    1
    17    33    34    1
    18     2     1    1
    19     2     3    1
    20     3     4    1
    21     4     5    1
    22     5     6    1
    23     6     7   ar
    24     7     8   ar
    25     8     9   ar
    26     9    10   ar
    27    10    11   ar
    28    17    18    1
    29    18    19    1
    30    19    20    1
    31    20    21    1
    32    21    22    1
    33    22    23    1
    34    34    25    1
    35    11     2    1
    36    23    18    1
    37    32    27   ar
    38    11     6   ar
    39    34    35    1
@<TRIPOS>MOLECULE
*****
 35 39 0 0 0
SMALL
GASTEIGER

@<TRIPOS>ATOM
      1 N         142.3574  139.7344  163.5650 N.3     1  UNL1       -0.2679
      2 C         142.4163  141.2120  163.8166 C.3     1  UNL1        0.0978
      3 C         143.7429  141.9081  163.8897 C.3     1  UNL1        0.0224
      4 C         143.8018  143.3857  164.1413 C.3     1  UNL1        0.0065
      5 C         142.5340  144.1671  164.3198 C.3     1  UNL1        0.0277
      6 C         141.2073  143.4710  164.2467 C.ar    1  UNL1       -0.0073
      7 C         139.9394  144.2525  164.4252 C.ar    1  UNL1       -0.0015
      8 C         138.6127  143.5564  164.3520 C.ar    1  UNL1        0.0203
      9 C         138.5539  142.0789  164.1004 C.ar    1  UNL1        0.0985
     10 N         139.8217  141.2974  163.9219 N.ar    1  UNL1       -0.2471
     11 C         141.1485  141.9935  163.9951 C.ar    1  UNL1        0.0695
     12 C         142.3399  139.2132  162.1586 C.3     1  UNL1        0.0725
     13 C         143.6261  139.0437  161.4055 C.3     1  UNL1        0.0188
     14 C         143.7334  139.5209  159.9875 C.3     1  UNL1        0.0188
     15 C         142.8568  140.6378  159.5037 C.3     1  UNL1        0.0721
     16 C         144.3797  142.5578  160.3668 C.3     1  UNL1        0.0896
     17 N         143.0115  142.0151  160.0776 N.3     1  UNL1       -0.2726
     18 C         141.7980  142.8496  160.3623 C.3     1  UNL1        0.0625
     19 C         140.4377  142.2176  160.3679 C.3     1  UNL1        0.0481
     20 C         139.2242  143.0521  160.6526 C.3     1  UNL1        0.1435
     21 O         139.3711  144.5186  160.9318 O.3     1  UNL1       -0.3537
     22 C         140.7314  145.1506  160.9262 C.3     1  UNL1        0.1435
     23 C         141.9449  144.3161  160.6415 C.3     1  UNL1        0.0481
     24 C         142.3161  138.7780  164.7198 C.3     1  UNL1        0.0886
     25 C         141.7282  139.2098  166.0306 C.3     1  UNL1        0.0764
     26 C         142.6263  139.4950  167.1976 C.3     1  UNL1        0.0626
     27 C         142.0385  139.9268  168.5084 C.ar    1  UNL1        0.0577
     28 N         142.9365  140.2120  169.6755 N.ar    1  UNL1       -0.2484
     29 C         142.3487  140.6438  170.9862 C.ar    1  UNL1        0.0984
     30 C         140.8628  140.7904  171.1298 C.ar    1  UNL1        0.0204
     31 C         139.9648  140.5052  169.9627 C.ar    1  UNL1       -0.0002
     32 C         140.5526  140.0734  168.6521 C.ar    1  UNL1        0.0073
     33 C         139.6545  139.7882  167.4849 C.3     1  UNL1        0.0968
     34 N         140.2423  139.3564  166.1742 N.3     1  UNL1       -0.2934
     35 H         139.9454  140.0408  165.4786 H       1  UNL1        0.1236
@<TRIPOS>BOND
     1    16    17    1
     2    17    15    1
     3    15    14    1
     4    14    13    1
     5    13    12    1
     6    12     1    1
     7     1    24    1
     8    25    24    1
     9    25    26    1
    10    26    27    1
    11    27    28   ar
    12    28    29   ar
    13    29    30   ar
    14    30    31   ar
    15    31    32   ar
    16    32    33    1
    17    33    34    1
    18     2     1    1
    19     2     3    1
    20     3     4    1
    21     4     5    1
    22     5     6    1
    23     6     7   ar
    24     7     8   ar
    25     8     9   ar
    26     9    10   ar
    27    10    11   ar
    28    17    18    1
    29    18    19    1
    30    19    20    1
    31    20    21    1
    32    21    22    1
    33    22    23    1
    34    34    25    1
    35    11     2    1
    36    23    18    1
    37    32    27   ar
    38    11     6   ar
    39    34    35    1
@<TRIPOS>MOLECULE
*****
 35 39 0 0 0
SMALL
GASTEIGER

@<TRIPOS>ATOM
      1 N         139.0606  140.0820  163.7473 N.3     1  UNL1       -0.2679
      2 C         138.9874  141.5800  163.7259 C.3     1  UNL1        0.0978
      3 C         137.6646  142.2638  163.5451 C.3     1  UNL1        0.0224
      4 C         137.5914  143.7618  163.5237 C.3     1  UNL1        0.0065
      5 C         138.8410  144.5761  163.6830 C.3     1  UNL1        0.0277
      6 C         140.1638  143.8924  163.8638 C.ar    1  UNL1       -0.0073
      7 C         141.4134  144.7067  164.0231 C.ar    1  UNL1       -0.0015
      8 C         142.7362  144.0229  164.2039 C.ar    1  UNL1        0.0203
      9 C         142.8094  142.5249  164.2253 C.ar    1  UNL1        0.0985
     10 N         141.5598  141.7106  164.0660 N.ar    1  UNL1       -0.2471
     11 C         140.2370  142.3943  163.8852 C.ar    1  UNL1        0.0695
     12 C         139.3274  139.3259  162.4797 C.3     1  UNL1        0.0725
     13 C         139.8313  137.9143  162.5402 C.3     1  UNL1        0.0188
     14 C         141.2908  137.6478  162.7610 C.3     1  UNL1        0.0188
     15 C         142.2853  137.9861  161.6903 C.3     1  UNL1        0.0721
     16 C         144.0238  139.0911  163.2735 C.3     1  UNL1        0.0896
     17 N         143.3342  139.0283  161.9430 N.3     1  UNL1       -0.2726
     18 C         143.6933  140.0077  160.8651 C.3     1  UNL1        0.0625
     19 C         143.5922  139.6066  159.4233 C.3     1  UNL1        0.0481
     20 C         143.9513  140.5860  158.3454 C.3     1  UNL1        0.1435
     21 O         144.4116  141.9664  158.7093 O.3     1  UNL1       -0.3537
     22 C         144.5127  142.3676  160.1512 C.3     1  UNL1        0.1435
     23 C         144.1536  141.3882  161.2291 C.3     1  UNL1        0.0481
     24 C         138.8669  139.3400  165.0365 C.3     1  UNL1        0.0886
     25 C         139.8326  139.5365  166.1674 C.3     1  UNL1        0.0764
     26 C         139.3296  139.9415  167.5213 C.3     1  UNL1        0.0626
     27 C         140.2953  140.1381  168.6522 C.ar    1  UNL1        0.0577
     28 N         139.7924  140.5431  170.0060 N.ar    1  UNL1       -0.2484
     29 C         140.7580  140.7396  171.1369 C.ar    1  UNL1        0.0984
     30 C         142.2266  140.5311  170.9138 C.ar    1  UNL1        0.0204
     31 C         142.7296  140.1261  169.5600 C.ar    1  UNL1       -0.0002
     32 C         141.7639  139.9296  168.4292 C.ar    1  UNL1        0.0073
     33 C         142.2668  139.5246  167.0752 C.3     1  UNL1        0.0968
     34 N         141.3012  139.3281  165.9444 N.3     1  UNL1       -0.2934
     35 H         141.4166  138.3672  165.6222 H       1  UNL1        0.1236
@<TRIPOS>BOND
     1    16    17    1
     2    17    15    1
     3    15    14    1
     4    14    13    1
     5    13    12    1
     6    12     1    1
     7     1    24    1
     8    25    24    1
     9    25    26    1
    10    26    27    1
    11    27    28   ar
    12    28    29   ar
    13    29    30   ar
    14    30    31   ar
    15    31    32   ar
    16    32    33    1
    17    33    34    1
    18     2     1    1
    19     2     3    1
    20     3     4    1
    21     4     5    1
    22     5     6    1
    23     6     7   ar
    24     7     8   ar
    25     8     9   ar
    26     9    10   ar
    27    10    11   ar
    28    17    18    1
    29    18    19    1
    30    19    20    1
    31    20    21    1
    32    21    22    1
    33    22    23    1
    34    34    25    1
    35    11     2    1
    36    23    18    1
    37    32    27   ar
    38    11     6   ar
    39    34    35    1
