@<TRIPOS>MOLECULE
*****
 38 42 0 0 0
SMALL
GASTEIGER

@<TRIPOS>ATOM
      1 S         142.0105  137.9846  161.0532 S.O2    1  UNL1        0.0736
      2 O         143.1637  137.5553  161.9109 O.2     1  UNL1       -0.1499
      3 O         140.8573  138.4139  160.1953 O.2     1  UNL1       -0.1499
      4 C         141.0905  137.8691  162.2323 C.ar    1  UNL1        0.1251
      5 C         141.6532  137.6301  163.6020 C.ar    1  UNL1        0.0199
      6 C         140.7332  137.5146  164.7811 C.ar    1  UNL1       -0.0029
      7 C         139.2505  137.6381  164.5905 C.ar    1  UNL1       -0.0220
      8 C         138.6878  137.8771  163.2206 C.ar    1  UNL1       -0.0029
      9 C         139.6078  137.9926  162.0415 C.ar    1  UNL1        0.0199
     10 C         138.3305  137.5226  165.7695 C.3     1  UNL1        0.0289
     11 C         138.0845  138.7132  166.6483 C.3     1  UNL1        0.0367
     12 C         139.2131  139.6414  166.9868 C.3     1  UNL1        0.1424
     13 O         139.2399  141.0287  166.4170 O.3     1  UNL1       -0.3561
     14 C         139.4140  141.2299  164.9408 C.3     1  UNL1        0.1179
     15 C         140.7900  141.2521  164.3440 C.3     1  UNL1        0.0455
     16 C         140.9641  141.4534  162.8678 C.3     1  UNL1        0.0600
     17 C         140.6697  141.6728  161.4134 C.3     1  UNL1        0.0174
     18 C         139.1814  141.7634  161.2503 C.3     1  UNL1        0.0174
     19 C         138.5559  141.6000  162.6038 C.3     1  UNL1        0.0600
     20 C         138.2121  141.4090  164.0613 C.3     1  UNL1        0.0455
     21 N         139.6576  141.4084  163.6035 N.3     1  UNL1       -0.2739
     22 C         139.3765  141.3163  164.3437 C.3     1  UNL1        0.0896
     23 N         142.9305  138.1001  159.8741 N.pl3   1  UNL1       -0.2152
     24 H         143.3141  137.2895  159.4677 H       1  UNL1        0.1737
     25 C         142.9716  139.7605  157.8763 C.ar    1  UNL1       -0.0074
     26 C         143.3072  141.1109  157.3162 C.ar    1  UNL1       -0.0014
     27 C         143.9372  142.1515  158.1940 C.ar    1  UNL1        0.0207
     28 C         144.2316  141.8416  159.6318 C.ar    1  UNL1        0.1036
     29 N         144.8428  142.6601  160.7301 N.ar    1  UNL1       -0.1692
     30 N         144.8850  141.8154  161.9690 N.ar    1  UNL1       -0.2473
     31 C         145.4187  142.2372  163.3059 C.3     1  UNL1        0.1538
     32 C         144.2999  140.4749  161.6363 C.ar    1  UNL1        0.0979
     33 C         143.8960  140.4911  160.1918 C.ar    1  UNL1        0.0524
     34 C         143.2660  139.4506  159.3140 C.ar    1  UNL1        0.0637
     35 C         142.3417  138.7199  156.9985 C.3     1  UNL1        0.0276
     36 C         144.2005  138.0460  155.3132 C.3     1  UNL1        0.0003
     37 C         143.1930  137.6646  156.3570 C.3     1  UNL1        0.0044
     38 C         143.0368  136.2280  156.7592 C.3     1  UNL1        0.0003
@<TRIPOS>BOND
     1    36    37    1
     2    37    38    1
     3    37    35    1
     4    35    25    1
     5    25    26   ar
     6    26    27   ar
     7    27    28   ar
     8    28    29   ar
     9    29    30   ar
    10    30    31    1
    11    30    32   ar
    12    32    33   ar
    13    33    34   ar
    14    34    23    1
    15    23     1    1
    16     1     2    2
    17     1     3    2
    18     1     4    1
    19     4     5   ar
    20     5     6   ar
    21     6     7   ar
    22     7    10    1
    23    10    11    1
    24    11    12    1
    25    12    13    1
    26    14    13    1
    27    14    15    1
    28    16    15    1
    29    16    17    1
    30    17    18    1
    31    19    18    1
    32    19    20    1
    33    19    21    1
    34    21    22    1
    35     7     8   ar
    36     8     9   ar
    37    34    25   ar
    38     9     4   ar
    39    33    28   ar
    40    20    14    1
    41    21    16    1
    42    23    24    1
@<TRIPOS>MOLECULE
*****
 38 42 0 0 0
SMALL
GASTEIGER

@<TRIPOS>ATOM
      1 S         140.4193  142.4855  165.1382 S.O2    1  UNL1        0.0736
      2 O         139.4176  141.4603  165.5803 O.2     1  UNL1       -0.1499
      3 O         141.4212  143.5107  164.6961 O.2     1  UNL1       -0.1499
      4 C         139.8830  142.4064  163.7396 C.ar    1  UNL1        0.1251
      5 C         140.7162  142.8867  162.5885 C.ar    1  UNL1        0.0199
      6 C         140.1799  142.8076  161.1899 C.ar    1  UNL1       -0.0029
      7 C         138.8103  142.2481  160.9423 C.ar    1  UNL1       -0.0220
      8 C         137.9771  141.7677  162.0935 C.ar    1  UNL1       -0.0029
      9 C         138.5134  141.8469  163.4921 C.ar    1  UNL1        0.0199
     10 C         138.2740  142.1689  159.5438 C.3     1  UNL1        0.0289
     11 C         138.1783  140.8418  158.8513 C.3     1  UNL1        0.0367
     12 C         139.3850  139.9556  158.7584 C.3     1  UNL1        0.1424
     13 O         139.3269  138.5518  159.2836 O.3     1  UNL1       -0.3561
     14 C         139.4456  138.2967  160.7570 C.3     1  UNL1        0.1179
     15 C         140.7950  138.0757  161.3736 C.3     1  UNL1        0.0455
     16 C         140.9137  137.8206  162.8469 C.3     1  UNL1        0.0600
     17 C         140.5663  137.6114  164.2910 C.3     1  UNL1        0.0174
     18 C         139.0766  137.7194  164.4297 C.3     1  UNL1        0.0174
     19 C         138.5034  137.9953  163.0713 C.3     1  UNL1        0.0600
     20 C         138.2149  138.2627  161.6138 C.3     1  UNL1        0.0455
     21 N         139.6388  138.0579  162.0931 N.3     1  UNL1       -0.2739
     22 C         139.3860  138.2033  161.3512 C.3     1  UNL1        0.0896
     23 N         140.9557  142.5646  166.5368 N.pl3   1  UNL1       -0.2152
     24 H         140.9066  143.4119  167.0356 H       1  UNL1        0.1737
     25 C         141.3084  141.0570  168.6231 C.ar    1  UNL1       -0.0074
     26 C         141.9194  139.8452  169.2617 C.ar    1  UNL1       -0.0014
     27 C         142.7888  138.9288  168.4527 C.ar    1  UNL1        0.0207
     28 C         143.0471  139.2244  167.0050 C.ar    1  UNL1        0.1036
     29 N         143.8552  138.5091  165.9632 N.ar    1  UNL1       -0.1692
     30 N         143.7435  139.2789  164.6806 N.ar    1  UNL1       -0.2473
     31 C         144.3946  138.9206  163.3777 C.3     1  UNL1        0.1538
     32 C         142.8665  140.4701  164.9298 C.ar    1  UNL1        0.0979
     33 C         142.4361  140.4364  166.3663 C.ar    1  UNL1        0.0524
     34 C         141.5667  141.3527  167.1754 C.ar    1  UNL1        0.0637
     35 C         140.4390  141.9734  169.4322 C.3     1  UNL1        0.0276
     36 C         140.1444  144.4681  170.0949 C.3     1  UNL1        0.0003
     37 C         141.0057  143.2444  169.9919 C.3     1  UNL1        0.0044
     38 C         142.4337  143.2918  170.4487 C.3     1  UNL1        0.0003
@<TRIPOS>BOND
     1    36    37    1
     2    37    38    1
     3    37    35    1
     4    35    25    1
     5    25    26   ar
     6    26    27   ar
     7    27    28   ar
     8    28    29   ar
     9    29    30   ar
    10    30    31    1
    11    30    32   ar
    12    32    33   ar
    13    33    34   ar
    14    34    23    1
    15    23     1    1
    16     1     2    2
    17     1     3    2
    18     1     4    1
    19     4     5   ar
    20     5     6   ar
    21     6     7   ar
    22     7    10    1
    23    10    11    1
    24    11    12    1
    25    12    13    1
    26    14    13    1
    27    14    15    1
    28    16    15    1
    29    16    17    1
    30    17    18    1
    31    19    18    1
    32    19    20    1
    33    19    21    1
    34    21    22    1
    35     7     8   ar
    36     8     9   ar
    37    34    25   ar
    38     9     4   ar
    39    33    28   ar
    40    20    14    1
    41    21    16    1
    42    23    24    1
@<TRIPOS>MOLECULE
*****
 38 42 0 0 0
SMALL
GASTEIGER

@<TRIPOS>ATOM
      1 S         142.7890  141.1577  163.0208 S.O2    1  UNL1        0.0736
      2 O         143.1909  142.5590  163.3738 O.2     1  UNL1       -0.1499
      3 O         142.3870  139.7563  162.6676 O.2     1  UNL1       -0.1499
      4 C         142.7199  140.8102  164.4783 C.ar    1  UNL1        0.1251
      5 C         142.7799  141.8957  165.5118 C.ar    1  UNL1        0.0199
      6 C         142.7108  141.5482  166.9693 C.ar    1  UNL1       -0.0029
      7 C         142.5818  140.1152  167.3935 C.ar    1  UNL1       -0.0220
      8 C         142.5218  139.0297  166.3599 C.ar    1  UNL1       -0.0029
      9 C         142.5909  139.3772  164.9024 C.ar    1  UNL1        0.0199
     10 C         142.5127  139.7677  168.8510 C.3     1  UNL1        0.0289
     11 C         141.1808  139.5789  169.5146 C.3     1  UNL1        0.0367
     12 C         139.9838  140.3377  169.0234 C.3     1  UNL1        0.1424
     13 O         138.8576  139.6093  168.3518 O.3     1  UNL1       -0.3561
     14 C         138.8732  139.4116  166.8650 C.3     1  UNL1        0.1179
     15 C         138.7408  138.0324  166.2903 C.3     1  UNL1        0.0455
     16 C         138.7564  137.8348  164.8035 C.3     1  UNL1        0.0600
     17 C         138.8212  138.1037  163.3292 C.3     1  UNL1        0.0174
     18 C         138.9830  139.5821  163.1344 C.3     1  UNL1        0.0174
     19 C         139.0182  140.2269  164.4882 C.3     1  UNL1        0.0600
     20 C         139.0211  140.5932  165.9528 C.3     1  UNL1        0.0455
     21 N         138.8782  139.1471  165.5198 N.3     1  UNL1       -0.2739
     22 C         138.8910  139.4391  166.2614 C.3     1  UNL1        0.0896
     23 N         142.8580  141.5051  161.5632 N.pl3   1  UNL1       -0.2152
     24 H         143.7114  141.7934  161.1658 H       1  UNL1        0.1737
     25 C         141.6344  140.5699  159.4708 C.ar    1  UNL1       -0.0074
     26 C         140.4034  140.4782  158.6188 C.ar    1  UNL1       -0.0014
     27 C         139.1647  141.2299  159.0070 C.ar    1  UNL1        0.0207
     28 C         139.1572  142.0733  160.2474 C.ar    1  UNL1        0.1036
     29 N         138.0925  142.9209  160.8784 N.ar    1  UNL1       -0.1692
     30 N         138.6656  143.5364  162.1204 N.ar    1  UNL1       -0.2473
     31 C         137.9462  144.4574  163.0607 C.3     1  UNL1        0.1538
     32 C         140.0845  143.0693  162.2570 C.ar    1  UNL1        0.0979
     33 C         140.3883  142.1651  161.0995 C.ar    1  UNL1        0.0524
     34 C         141.6269  141.4134  160.7111 C.ar    1  UNL1        0.0637
     35 C         142.8731  139.8182  159.0825 C.3     1  UNL1        0.0276
     36 C         142.6820  137.6562  157.6545 C.3     1  UNL1        0.0003
     37 C         142.8437  138.3214  158.9892 C.3     1  UNL1        0.0044
     38 C         142.9758  137.4897  160.2305 C.3     1  UNL1        0.0003
@<TRIPOS>BOND
     1    36    37    1
     2    37    38    1
     3    37    35    1
     4    35    25    1
     5    25    26   ar
     6    26    27   ar
     7    27    28   ar
     8    28    29   ar
     9    29    30   ar
    10    30    31    1
    11    30    32   ar
    12    32    33   ar
    13    33    34   ar
    14    34    23    1
    15    23     1    1
    16     1     2    2
    17     1     3    2
    18     1     4    1
    19     4     5   ar
    20     5     6   ar
    21     6     7   ar
    22     7    10    1
    23    10    11    1
    24    11    12    1
    25    12    13    1
    26    14    13    1
    27    14    15    1
    28    16    15    1
    29    16    17    1
    30    17    18    1
    31    19    18    1
    32    19    20    1
    33    19    21    1
    34    21    22    1
    35     7     8   ar
    36     8     9   ar
    37    34    25   ar
    38     9     4   ar
    39    33    28   ar
    40    20    14    1
    41    21    16    1
    42    23    24    1
@<TRIPOS>MOLECULE
*****
 38 42 0 0 0
SMALL
GASTEIGER

@<TRIPOS>ATOM
      1 S         141.5304  142.9793  164.5003 S.O2    1  UNL1        0.0736
      2 O         142.5420  142.1013  165.1754 O.2     1  UNL1       -0.1499
      3 O         140.5187  143.8573  163.8252 O.2     1  UNL1       -0.1499
      4 C         142.2672  142.8301  163.2023 C.ar    1  UNL1        0.1251
      5 C         143.7656  142.8952  163.1786 C.ar    1  UNL1        0.0199
      6 C         144.5024  142.7460  161.8805 C.ar    1  UNL1       -0.0029
      7 C         143.7408  142.5317  160.6062 C.ar    1  UNL1       -0.0220
      8 C         142.2423  142.4665  160.6299 C.ar    1  UNL1       -0.0029
      9 C         141.5055  142.6157  161.9279 C.ar    1  UNL1        0.0199
     10 C         144.4775  142.3824  159.3082 C.3     1  UNL1        0.0289
     11 C         144.3389  141.1213  158.5079 C.3     1  UNL1        0.0367
     12 C         143.6324  139.9350  159.0939 C.3     1  UNL1        0.1424
     13 O         144.3138  139.0933  160.1317 O.3     1  UNL1       -0.3561
     14 C         143.6019  138.7532  161.4074 C.3     1  UNL1        0.1179
     15 C         144.1193  139.2719  162.7163 C.3     1  UNL1        0.0455
     16 C         143.4074  138.9318  163.9920 C.3     1  UNL1        0.0600
     17 C         142.4186  138.3625  164.9658 C.3     1  UNL1        0.0174
     18 C         141.4101  137.5672  164.1909 C.3     1  UNL1        0.0174
     19 C         141.7756  137.6449  162.7382 C.3     1  UNL1        0.0600
     20 C         142.3725  137.8944  161.3742 C.3     1  UNL1        0.0455
     21 N         143.0100  138.4883  162.6152 N.3     1  UNL1       -0.2739
     22 C         143.2474  138.5614  161.8578 C.3     1  UNL1        0.0896
     23 N         140.7936  143.1285  165.7983 N.pl3   1  UNL1       -0.2152
     24 H         140.7095  144.0153  166.2174 H       1  UNL1        0.1737
     25 C         140.2712  141.7635  167.9463 C.ar    1  UNL1       -0.0074
     26 C         139.6626  140.5616  168.6057 C.ar    1  UNL1       -0.0014
     27 C         138.9677  139.5225  167.7765 C.ar    1  UNL1        0.0207
     28 C         138.8815  139.6855  166.2879 C.ar    1  UNL1        0.1036
     29 N         138.2644  138.8330  165.2190 N.ar    1  UNL1       -0.1692
     30 N         138.4918  139.5082  163.8990 N.ar    1  UNL1       -0.2473
     31 C         138.0408  139.0024  162.5608 C.3     1  UNL1        0.1538
     32 C         139.2492  140.7779  164.1520 C.ar    1  UNL1        0.0979
     33 C         139.4901  140.8875  165.6285 C.ar    1  UNL1        0.0524
     34 C         140.1850  141.9265  166.4577 C.ar    1  UNL1        0.0637
     35 C         140.9662  142.8026  168.7755 C.3     1  UNL1        0.0276
     36 C         141.9934  142.1452  171.0695 C.3     1  UNL1        0.0003
     37 C         142.1577  142.4262  169.6052 C.3     1  UNL1        0.0044
     38 C         143.5136  142.3308  168.9708 C.3     1  UNL1        0.0003
@<TRIPOS>BOND
     1    36    37    1
     2    37    38    1
     3    37    35    1
     4    35    25    1
     5    25    26   ar
     6    26    27   ar
     7    27    28   ar
     8    28    29   ar
     9    29    30   ar
    10    30    31    1
    11    30    32   ar
    12    32    33   ar
    13    33    34   ar
    14    34    23    1
    15    23     1    1
    16     1     2    2
    17     1     3    2
    18     1     4    1
    19     4     5   ar
    20     5     6   ar
    21     6     7   ar
    22     7    10    1
    23    10    11    1
    24    11    12    1
    25    12    13    1
    26    14    13    1
    27    14    15    1
    28    16    15    1
    29    16    17    1
    30    17    18    1
    31    19    18    1
    32    19    20    1
    33    19    21    1
    34    21    22    1
    35     7     8   ar
    36     8     9   ar
    37    34    25   ar
    38     9     4   ar
    39    33    28   ar
    40    20    14    1
    41    21    16    1
    42    23    24    1
@<TRIPOS>MOLECULE
*****
 38 42 0 0 0
SMALL
GASTEIGER

@<TRIPOS>ATOM
      1 S         139.5526  140.2179  163.5042 S.O2    1  UNL1        0.0736
      2 O         138.4222  139.4152  162.9316 O.2     1  UNL1       -0.1499
      3 O         140.6831  141.0205  164.0768 O.2     1  UNL1       -0.1499
      4 C         139.6251  141.0190  162.2381 C.ar    1  UNL1        0.1251
      5 C         140.9408  141.5685  161.7725 C.ar    1  UNL1        0.0199
      6 C         141.0133  142.3696  160.5064 C.ar    1  UNL1       -0.0029
      7 C         139.7700  142.6212  159.7058 C.ar    1  UNL1       -0.0220
      8 C         138.4542  142.0716  160.1715 C.ar    1  UNL1       -0.0029
      9 C         138.3817  141.2705  161.4375 C.ar    1  UNL1        0.0199
     10 C         139.8424  143.4222  158.4398 C.3     1  UNL1        0.0289
     11 C         140.1294  144.8934  158.4985 C.3     1  UNL1        0.0367
     12 C         140.6299  145.5097  159.7712 C.3     1  UNL1        0.1424
     13 O         139.6561  146.0329  160.7849 O.3     1  UNL1       -0.3561
     14 C         139.5182  145.3515  162.1140 C.3     1  UNL1        0.1179
     15 C         138.1983  144.7692  162.5249 C.3     1  UNL1        0.0455
     16 C         138.0604  144.0878  163.8541 C.3     1  UNL1        0.0600
     17 C         138.3756  143.5258  165.2086 C.3     1  UNL1        0.0174
     18 C         139.8201  143.8047  165.5015 C.3     1  UNL1        0.0174
     19 C         140.3975  144.5390  164.3279 C.3     1  UNL1        0.0600
     20 C         140.7002  145.2523  163.0322 C.3     1  UNL1        0.0455
     21 N         139.3101  144.7140  163.3097 N.3     1  UNL1       -0.2739
     22 C         139.5669  145.1012  162.6620 C.3     1  UNL1        0.0896
     23 N         139.4802  139.4168  164.7703 N.pl3   1  UNL1       -0.2152
     24 H         138.6256  139.0168  165.0515 H       1  UNL1        0.1737
     25 C         141.8073  138.3200  165.1328 C.ar    1  UNL1       -0.0074
     26 C         143.0367  138.1283  165.9704 C.ar    1  UNL1       -0.0014
     27 C         143.1685  138.8418  167.2833 C.ar    1  UNL1        0.0207
     28 C         142.0708  139.7470  167.7585 C.ar    1  UNL1        0.1036
     29 N         141.9204  140.5765  168.9991 N.ar    1  UNL1       -0.1692
     30 N         140.5980  141.2809  168.9282 N.ar    1  UNL1       -0.2473
     31 C         140.0404  142.2155  169.9605 C.3     1  UNL1        0.1538
     32 C         139.9311  140.8867  167.6437 C.ar    1  UNL1        0.0979
     33 C         140.8414  139.9386  166.9208 C.ar    1  UNL1        0.0524
     34 C         140.7096  139.2251  165.6080 C.ar    1  UNL1        0.0637
     35 C         141.6754  137.6065  163.8199 C.3     1  UNL1        0.0276
     36 C         143.6095  138.9431  162.7143 C.3     1  UNL1        0.0003
     37 C         142.3323  138.1661  162.5930 C.3     1  UNL1        0.0044
     38 C         141.7119  137.9488  161.2447 C.3     1  UNL1        0.0003
@<TRIPOS>BOND
     1    36    37    1
     2    37    38    1
     3    37    35    1
     4    35    25    1
     5    25    26   ar
     6    26    27   ar
     7    27    28   ar
     8    28    29   ar
     9    29    30   ar
    10    30    31    1
    11    30    32   ar
    12    32    33   ar
    13    33    34   ar
    14    34    23    1
    15    23     1    1
    16     1     2    2
    17     1     3    2
    18     1     4    1
    19     4     5   ar
    20     5     6   ar
    21     6     7   ar
    22     7    10    1
    23    10    11    1
    24    11    12    1
    25    12    13    1
    26    14    13    1
    27    14    15    1
    28    16    15    1
    29    16    17    1
    30    17    18    1
    31    19    18    1
    32    19    20    1
    33    19    21    1
    34    21    22    1
    35     7     8   ar
    36     8     9   ar
    37    34    25   ar
    38     9     4   ar
    39    33    28   ar
    40    20    14    1
    41    21    16    1
    42    23    24    1
@<TRIPOS>MOLECULE
*****
 38 42 0 0 0
SMALL
GASTEIGER

@<TRIPOS>ATOM
      1 S         139.9764  140.0016  164.3999 S.O2    1  UNL1        0.0736
      2 O         139.1688  141.0427  165.1168 O.2     1  UNL1       -0.1499
      3 O         140.7840  138.9604  163.6830 O.2     1  UNL1       -0.1499
      4 C         139.7121  140.6944  163.0960 C.ar    1  UNL1        0.1251
      5 C         140.7191  140.6157  161.9872 C.ar    1  UNL1        0.0199
      6 C         140.4548  141.3086  160.6833 C.ar    1  UNL1       -0.0029
      7 C         139.1834  142.0801  160.4882 C.ar    1  UNL1       -0.0220
      8 C         138.1762  142.1588  161.5971 C.ar    1  UNL1       -0.0029
      9 C         138.4405  141.4660  162.9010 C.ar    1  UNL1        0.0199
     10 C         138.9190  142.7730  159.1844 C.3     1  UNL1        0.0289
     11 C         140.0217  143.5213  158.4957 C.3     1  UNL1        0.0367
     12 C         140.1414  145.0066  158.6676 C.3     1  UNL1        0.1424
     13 O         141.0483  145.5689  159.7218 O.3     1  UNL1       -0.3561
     14 C         140.8622  145.1778  161.1578 C.3     1  UNL1        0.1179
     15 C         141.9127  144.3664  161.8564 C.3     1  UNL1        0.0455
     16 C         141.7265  143.9752  163.2924 C.3     1  UNL1        0.0600
     17 C         141.1414  143.8230  164.6652 C.3     1  UNL1        0.0174
     18 C         139.8209  144.5341  164.6877 C.3     1  UNL1        0.0174
     19 C         139.5899  145.1258  163.3289 C.3     1  UNL1        0.0600
     20 C         139.6255  145.5980  161.8954 C.3     1  UNL1        0.0455
     21 N         140.7676  144.7804  162.4665 N.3     1  UNL1       -0.2739
     22 C         140.6938  145.0736  161.7289 C.3     1  UNL1        0.0896
     23 N         140.2407  139.3088  165.7038 N.pl3   1  UNL1       -0.2152
     24 H         140.0577  138.3458  165.7954 H       1  UNL1        0.1737
     25 C         142.1116  140.7719  166.7567 C.ar    1  UNL1       -0.0074
     26 C         142.6547  141.5462  167.9208 C.ar    1  UNL1       -0.0014
     27 C         141.8700  141.6319  169.1964 C.ar    1  UNL1        0.0207
     28 C         140.5421  140.9432  169.3076 C.ar    1  UNL1        0.1036
     29 N         139.5500  140.8514  170.4289 N.ar    1  UNL1       -0.1692
     30 N         138.3936  140.0202  169.9576 N.ar    1  UNL1       -0.2473
     31 C         137.1739  139.6720  170.7582 C.3     1  UNL1        0.1538
     32 C         138.6712  139.5984  168.5451 C.ar    1  UNL1        0.0979
     33 C         139.9990  140.1688  168.1434 C.ar    1  UNL1        0.0524
     34 C         140.7838  140.0832  166.8680 C.ar    1  UNL1        0.0637
     35 C         142.8964  140.6862  165.4812 C.3     1  UNL1        0.0276
     36 C         144.9290  139.6704  164.2216 C.3     1  UNL1        0.0003
     37 C         143.8606  139.5571  165.2683 C.3     1  UNL1        0.0044
     38 C         143.7565  138.3145  166.1022 C.3     1  UNL1        0.0003
@<TRIPOS>BOND
     1    36    37    1
     2    37    38    1
     3    37    35    1
     4    35    25    1
     5    25    26   ar
     6    26    27   ar
     7    27    28   ar
     8    28    29   ar
     9    29    30   ar
    10    30    31    1
    11    30    32   ar
    12    32    33   ar
    13    33    34   ar
    14    34    23    1
    15    23     1    1
    16     1     2    2
    17     1     3    2
    18     1     4    1
    19     4     5   ar
    20     5     6   ar
    21     6     7   ar
    22     7    10    1
    23    10    11    1
    24    11    12    1
    25    12    13    1
    26    14    13    1
    27    14    15    1
    28    16    15    1
    29    16    17    1
    30    17    18    1
    31    19    18    1
    32    19    20    1
    33    19    21    1
    34    21    22    1
    35     7     8   ar
    36     8     9   ar
    37    34    25   ar
    38     9     4   ar
    39    33    28   ar
    40    20    14    1
    41    21    16    1
    42    23    24    1
@<TRIPOS>MOLECULE
*****
 38 42 0 0 0
SMALL
GASTEIGER

@<TRIPOS>ATOM
      1 S         142.0542  140.0593  163.3668 S.O2    1  UNL1        0.0736
      2 O         141.9004  141.2098  164.3169 O.2     1  UNL1       -0.1499
      3 O         142.2080  138.9087  162.4166 O.2     1  UNL1       -0.1499
      4 C         142.1264  141.0191  162.2163 C.ar    1  UNL1        0.1251
      5 C         143.0665  142.1866  162.2714 C.ar    1  UNL1        0.0199
      6 C         143.1387  143.1464  161.1209 C.ar    1  UNL1       -0.0029
      7 C         142.2708  142.9387  159.9153 C.ar    1  UNL1       -0.0220
      8 C         141.3306  141.7711  159.8602 C.ar    1  UNL1       -0.0029
      9 C         141.2584  140.8113  161.0107 C.ar    1  UNL1        0.0199
     10 C         142.3429  143.8984  158.7648 C.3     1  UNL1        0.0289
     11 C         141.5116  145.1469  158.7765 C.3     1  UNL1        0.0367
     12 C         140.2799  145.2199  159.6294 C.3     1  UNL1        0.1424
     13 O         140.3021  145.9935  160.9143 O.3     1  UNL1       -0.3561
     14 C         139.9250  145.3213  162.2012 C.3     1  UNL1        0.1179
     15 C         138.5002  144.9241  162.4504 C.3     1  UNL1        0.0455
     16 C         138.1231  144.2519  163.7372 C.3     1  UNL1        0.0600
     17 C         138.2057  143.6345  165.1017 C.3     1  UNL1        0.0174
     18 C         139.6332  143.7050  165.5569 C.3     1  UNL1        0.0174
     19 C         140.4329  144.3661  164.4737 C.3     1  UNL1        0.0600
     20 C         140.9728  145.0464  163.2388 C.3     1  UNL1        0.0455
     21 N         139.4997  144.7041  163.3490 N.3     1  UNL1       -0.2739
     22 C         139.8777  145.0598  162.7440 C.3     1  UNL1        0.0896
     23 N         141.9820  139.0995  164.5172 N.pl3   1  UNL1       -0.2152
     24 H         142.6356  138.3667  164.5887 H       1  UNL1        0.1737
     25 C         139.5069  138.8316  165.2601 C.ar    1  UNL1       -0.0074
     26 C         138.4391  138.9883  166.3017 C.ar    1  UNL1       -0.0014
     27 C         138.7784  139.5698  167.6422 C.ar    1  UNL1        0.0207
     28 C         140.1856  139.9946  167.9409 C.ar    1  UNL1        0.1036
     29 N         140.8146  140.5955  169.1629 N.ar    1  UNL1       -0.1692
     30 N         142.2713  140.8102  168.8765 N.ar    1  UNL1       -0.2473
     31 C         143.2797  141.3911  169.8228 C.3     1  UNL1        0.1538
     32 C         142.5425  140.3419  167.4775 C.ar    1  UNL1        0.0979
     33 C         141.2535  139.8378  166.8993 C.ar    1  UNL1        0.0524
     34 C         140.9142  139.2563  165.5589 C.ar    1  UNL1        0.0637
     35 C         139.1676  138.2500  163.9197 C.3     1  UNL1        0.0276
     36 C         137.8027  138.4014  161.7143 C.3     1  UNL1        0.0003
     37 C         138.3942  139.0625  162.9238 C.3     1  UNL1        0.0044
     38 C         138.2124  140.5360  163.1373 C.3     1  UNL1        0.0003
@<TRIPOS>BOND
     1    36    37    1
     2    37    38    1
     3    37    35    1
     4    35    25    1
     5    25    26   ar
     6    26    27   ar
     7    27    28   ar
     8    28    29   ar
     9    29    30   ar
    10    30    31    1
    11    30    32   ar
    12    32    33   ar
    13    33    34   ar
    14    34    23    1
    15    23     1    1
    16     1     2    2
    17     1     3    2
    18     1     4    1
    19     4     5   ar
    20     5     6   ar
    21     6     7   ar
    22     7    10    1
    23    10    11    1
    24    11    12    1
    25    12    13    1
    26    14    13    1
    27    14    15    1
    28    16    15    1
    29    16    17    1
    30    17    18    1
    31    19    18    1
    32    19    20    1
    33    19    21    1
    34    21    22    1
    35     7     8   ar
    36     8     9   ar
    37    34    25   ar
    38     9     4   ar
    39    33    28   ar
    40    20    14    1
    41    21    16    1
    42    23    24    1
@<TRIPOS>MOLECULE
*****
 38 42 0 0 0
SMALL
GASTEIGER

@<TRIPOS>ATOM
      1 S         140.0395  143.0188  164.7978 S.O2    1  UNL1        0.0736
      2 O         141.4480  143.4702  165.0476 O.2     1  UNL1       -0.1499
      3 O         138.6310  142.5673  164.5480 O.2     1  UNL1       -0.1499
      4 C         140.0910  143.6185  163.4239 C.ar    1  UNL1        0.1251
      5 C         139.8476  142.7575  162.2200 C.ar    1  UNL1        0.0199
      6 C         139.8991  143.3572  160.8461 C.ar    1  UNL1       -0.0029
      7 C         140.1939  144.8181  160.6760 C.ar    1  UNL1       -0.0220
      8 C         140.4373  145.6792  161.8800 C.ar    1  UNL1       -0.0029
      9 C         140.3858  145.0794  163.2539 C.ar    1  UNL1        0.0199
     10 C         140.2454  145.4179  159.3022 C.3     1  UNL1        0.0289
     11 C         141.5359  145.4309  158.5374 C.3     1  UNL1        0.0367
     12 C         142.2007  144.1386  158.1662 C.3     1  UNL1        0.1424
     13 O         143.4999  143.7520  158.8084 O.3     1  UNL1       -0.3561
     14 C         143.5042  142.8612  160.0153 C.3     1  UNL1        0.1179
     15 C         143.4271  141.3724  159.8488 C.3     1  UNL1        0.0455
     16 C         143.4314  140.4817  161.0557 C.3     1  UNL1        0.0600
     17 C         143.4636  140.0068  162.4781 C.3     1  UNL1        0.0174
     18 C         143.5551  141.2115  163.3671 C.3     1  UNL1        0.0174
     19 C         143.5793  142.4310  162.4940 C.3     1  UNL1        0.0600
     20 C         143.5855  143.4591  161.3885 C.3     1  UNL1        0.0455
     21 N         143.5028  141.9799  161.0655 N.3     1  UNL1       -0.2739
     22 C         143.5124  142.5942  160.5575 C.3     1  UNL1        0.0896
     23 N         139.9880  142.4190  166.1717 N.pl3   1  UNL1       -0.2152
     24 H         139.3348  142.7506  166.8294 H       1  UNL1        0.1737
     25 C         141.8062  141.4504  167.7547 C.ar    1  UNL1       -0.0074
     26 C         142.7500  140.3456  168.1266 C.ar    1  UNL1       -0.0014
     27 C         142.8196  139.1042  167.2873 C.ar    1  UNL1        0.0207
     28 C         141.9453  138.9679  166.0761 C.ar    1  UNL1        0.1036
     29 N         141.7951  137.8700  165.0652 N.ar    1  UNL1       -0.1692
     30 N         140.7584  138.2964  164.0685 N.ar    1  UNL1       -0.2473
     31 C         140.2938  137.5011  162.8846 C.3     1  UNL1        0.1538
     32 C         140.2679  139.6578  164.4634 C.ar    1  UNL1        0.0979
     33 C         141.0014  140.0728  165.7043 C.ar    1  UNL1        0.0524
     34 C         140.9319  141.3141  166.5436 C.ar    1  UNL1        0.0637
     35 C         141.7366  142.6918  168.5940 C.3     1  UNL1        0.0276
     36 C         140.2619  144.2613  170.0471 C.3     1  UNL1        0.0003
     37 C         140.5996  142.8860  169.5528 C.3     1  UNL1        0.0044
     38 C         139.8001  141.7048  170.0175 C.3     1  UNL1        0.0003
@<TRIPOS>BOND
     1    36    37    1
     2    37    38    1
     3    37    35    1
     4    35    25    1
     5    25    26   ar
     6    26    27   ar
     7    27    28   ar
     8    28    29   ar
     9    29    30   ar
    10    30    31    1
    11    30    32   ar
    12    32    33   ar
    13    33    34   ar
    14    34    23    1
    15    23     1    1
    16     1     2    2
    17     1     3    2
    18     1     4    1
    19     4     5   ar
    20     5     6   ar
    21     6     7   ar
    22     7    10    1
    23    10    11    1
    24    11    12    1
    25    12    13    1
    26    14    13    1
    27    14    15    1
    28    16    15    1
    29    16    17    1
    30    17    18    1
    31    19    18    1
    32    19    20    1
    33    19    21    1
    34    21    22    1
    35     7     8   ar
    36     8     9   ar
    37    34    25   ar
    38     9     4   ar
    39    33    28   ar
    40    20    14    1
    41    21    16    1
    42    23    24    1
@<TRIPOS>MOLECULE
*****
 38 42 0 0 0
SMALL
GASTEIGER

@<TRIPOS>ATOM
      1 S         141.6230  140.6224  161.7656 S.O2    1  UNL1        0.0736
      2 O         140.6551  141.7403  162.0174 O.2     1  UNL1       -0.1499
      3 O         142.5911  139.5045  161.5138 O.2     1  UNL1       -0.1499
      4 C         141.8063  140.4481  163.2442 C.ar    1  UNL1        0.1251
      5 C         142.2303  139.1193  163.7959 C.ar    1  UNL1        0.0199
      6 C         142.4136  138.9451  165.2744 C.ar    1  UNL1       -0.0029
      7 C         142.1729  140.0997  166.2013 C.ar    1  UNL1       -0.0220
      8 C         141.7490  141.4286  165.6494 C.ar    1  UNL1       -0.0029
      9 C         141.5657  141.6028  164.1709 C.ar    1  UNL1        0.0199
     10 C         142.3562  139.9255  167.6797 C.3     1  UNL1        0.0289
     11 C         141.1763  139.6061  168.5492 C.3     1  UNL1        0.0367
     12 C         139.8274  140.1744  168.2214 C.3     1  UNL1        0.1424
     13 O         138.7593  139.2896  167.6502 O.3     1  UNL1       -0.3561
     14 C         138.6581  139.0986  166.1658 C.3     1  UNL1        0.1179
     15 C         138.2166  140.2349  165.2918 C.3     1  UNL1        0.0455
     16 C         138.1153  140.0438  163.8075 C.3     1  UNL1        0.0600
     17 C         138.1585  139.4226  162.4429 C.3     1  UNL1        0.0174
     18 C         138.6099  138.0003  162.5952 C.3     1  UNL1        0.0174
     19 C         138.8457  137.7425  164.0539 C.3     1  UNL1        0.0600
     20 C         138.9984  137.7713  165.5555 C.3     1  UNL1        0.0455
     21 N         138.5400  139.0054  164.8032 N.3     1  UNL1       -0.2739
     22 C         138.6503  138.9210  165.5881 C.3     1  UNL1        0.0896
     23 N         141.4397  140.7967  160.2871 N.pl3   1  UNL1       -0.2152
     24 H         140.5387  140.7468  159.8936 H       1  UNL1        0.1737
     25 C         143.4808  142.2623  159.6269 C.ar    1  UNL1       -0.0074
     26 C         144.6703  142.5126  158.7481 C.ar    1  UNL1       -0.0014
     27 C         145.0083  141.5476  157.6505 C.ar    1  UNL1        0.0207
     28 C         144.1567  140.3323  157.4319 C.ar    1  UNL1        0.1036
     29 N         144.2423  139.2124  156.4376 N.ar    1  UNL1       -0.1692
     30 N         143.1057  138.2700  156.7019 N.ar    1  UNL1       -0.2473
     31 C         142.8091  137.0112  155.9421 C.3     1  UNL1        0.1538
     32 C         142.3176  138.8074  157.8596 C.ar    1  UNL1        0.0979
     33 C         142.9672  140.0820  158.3107 C.ar    1  UNL1        0.0524
     34 C         142.6293  141.0470  159.4083 C.ar    1  UNL1        0.0637
     35 C         143.1428  143.2273  160.7245 C.3     1  UNL1        0.0276
     36 C         144.9695  142.2067  162.2645 C.3     1  UNL1        0.0003
     37 C         144.0209  143.3216  161.9369 C.3     1  UNL1        0.0044
     38 C         143.9506  144.5307  162.8218 C.3     1  UNL1        0.0003
@<TRIPOS>BOND
     1    36    37    1
     2    37    38    1
     3    37    35    1
     4    35    25    1
     5    25    26   ar
     6    26    27   ar
     7    27    28   ar
     8    28    29   ar
     9    29    30   ar
    10    30    31    1
    11    30    32   ar
    12    32    33   ar
    13    33    34   ar
    14    34    23    1
    15    23     1    1
    16     1     2    2
    17     1     3    2
    18     1     4    1
    19     4     5   ar
    20     5     6   ar
    21     6     7   ar
    22     7    10    1
    23    10    11    1
    24    11    12    1
    25    12    13    1
    26    14    13    1
    27    14    15    1
    28    16    15    1
    29    16    17    1
    30    17    18    1
    31    19    18    1
    32    19    20    1
    33    19    21    1
    34    21    22    1
    35     7     8   ar
    36     8     9   ar
    37    34    25   ar
    38     9     4   ar
    39    33    28   ar
    40    20    14    1
    41    21    16    1
    42    23    24    1
