@<TRIPOS>MOLECULE
*****
 29 32 0 0 0
SMALL
GASTEIGER

@<TRIPOS>ATOM
      1 N         141.7925  140.7443  166.5390 N.3     1  UNL1       -0.2453
      2 H         142.0163  139.9086  165.9986 H       1  UNL1        0.1309
      3 O         139.9559  139.8806  168.7484 O.2     1  UNL1       -0.2944
      4 P         140.8742  140.3124  167.6437 P.3     1  UNL1        0.2089
      5 C         141.5347  141.2866  168.5735 C.ar    1  UNL1        0.0464
      6 C         142.9836  141.1231  168.9257 C.ar    1  UNL1        0.0044
      7 C         143.6440  142.0973  169.8555 C.ar    1  UNL1        0.0002
      8 C         142.8556  143.2351  170.4333 C.ar    1  UNL1        0.0000
      9 C         141.4067  143.3987  170.0812 C.ar    1  UNL1        0.0002
     10 C         140.7462  142.4244  169.1513 C.ar    1  UNL1        0.0044
     11 C         140.2138  139.3382  166.7138 C.ar    1  UNL1        0.0464
     12 C         141.0274  138.6207  165.6778 C.ar    1  UNL1        0.0044
     13 C         140.3670  137.6465  164.7479 C.ar    1  UNL1        0.0002
     14 C         138.8930  137.3897  164.8540 C.ar    1  UNL1        0.0000
     15 C         138.0793  138.1071  165.8900 C.ar    1  UNL1        0.0002
     16 C         138.7398  139.0814  166.8199 C.ar    1  UNL1        0.0044
     17 C         141.3469  141.7879  165.5581 C.3     1  UNL1        0.1014
     18 C         142.2752  142.9021  165.1749 C.ar    1  UNL1       -0.0060
     19 C         143.7098  142.8668  165.6117 C.ar    1  UNL1       -0.0029
     20 C         144.6380  143.9809  165.2285 C.ar    1  UNL1       -0.0003
     21 C         144.1318  145.1304  164.4085 C.ar    1  UNL1       -0.0000
     22 C         142.6973  145.1657  163.9717 C.ar    1  UNL1       -0.0002
     23 C         141.7690  144.0516  164.3549 C.ar    1  UNL1       -0.0012
     24 C         140.3344  144.0869  163.9181 C.ar    1  UNL1        0.0189
     25 C         139.2559  144.4068  164.9105 C.ar    1  UNL1        0.0031
     26 C         137.8214  144.4421  164.4738 C.ar    1  UNL1        0.0207
     27 C         137.4652  144.1575  163.0447 C.ar    1  UNL1        0.0989
     28 N         138.5436  143.8376  162.0523 N.ar    1  UNL1       -0.2423
     29 C         139.9782  143.8023  162.4891 C.ar    1  UNL1        0.0988
@<TRIPOS>BOND
     1     3     4    2
     2     4     1    1
     3     1    17    1
     4    17    18    1
     5    18    19   ar
     6    19    20   ar
     7    20    21   ar
     8    21    22   ar
     9    22    23   ar
    10    23    24    1
    11    24    25   ar
    12    25    26   ar
    13    26    27   ar
    14    27    28   ar
    15    28    29   ar
    16     4     5    1
    17     5     6   ar
    18     6     7   ar
    19     7     8   ar
    20     8     9   ar
    21     9    10   ar
    22     4    11    1
    23    11    12   ar
    24    12    13   ar
    25    13    14   ar
    26    14    15   ar
    27    15    16   ar
    28    23    18   ar
    29    29    24   ar
    30    10     5   ar
    31    16    11   ar
    32     1     2    1
@<TRIPOS>MOLECULE
*****
 29 32 0 0 0
SMALL
GASTEIGER

@<TRIPOS>ATOM
      1 N         141.9746  140.7800  166.3513 N.3     1  UNL1       -0.2453
      2 H         142.3117  139.9547  165.8557 H       1  UNL1        0.1309
      3 O         140.0109  139.8158  168.4041 O.2     1  UNL1       -0.2944
      4 P         140.9928  140.2979  167.3777 P.3     1  UNL1        0.2089
      5 C         140.4581  139.2975  166.3963 C.ar    1  UNL1        0.0464
      6 C         138.9773  139.1076  166.2503 C.ar    1  UNL1        0.0044
      7 C         138.4427  138.1071  165.2689 C.ar    1  UNL1        0.0002
      8 C         139.3887  137.2966  164.4335 C.ar    1  UNL1        0.0000
      9 C         140.8694  137.4864  164.5794 C.ar    1  UNL1        0.0002
     10 C         141.4042  138.4869  165.5609 C.ar    1  UNL1        0.0044
     11 C         141.5274  141.2984  168.3591 C.ar    1  UNL1        0.0464
     12 C         142.9621  141.2314  168.7921 C.ar    1  UNL1        0.0044
     13 C         143.4967  142.2319  169.7735 C.ar    1  UNL1        0.0002
     14 C         142.5968  143.2993  170.3219 C.ar    1  UNL1        0.0000
     15 C         141.1623  143.3663  169.8890 C.ar    1  UNL1        0.0002
     16 C         140.6276  142.3658  168.9075 C.ar    1  UNL1        0.0044
     17 C         141.5440  141.7666  165.3067 C.3     1  UNL1        0.1014
     18 C         142.4017  142.9590  165.0023 C.ar    1  UNL1       -0.0060
     19 C         143.8433  142.9714  165.4166 C.ar    1  UNL1       -0.0029
     20 C         144.7008  144.1638  165.1122 C.ar    1  UNL1       -0.0003
     21 C         144.1169  145.3438  164.3936 C.ar    1  UNL1       -0.0000
     22 C         142.6753  145.3315  163.9793 C.ar    1  UNL1       -0.0002
     23 C         141.8177  144.1391  164.2837 C.ar    1  UNL1       -0.0012
     24 C         140.3760  144.1267  163.8694 C.ar    1  UNL1        0.0189
     25 C         139.3019  144.3856  164.8840 C.ar    1  UNL1        0.0031
     26 C         137.8603  144.3732  164.4698 C.ar    1  UNL1        0.0207
     27 C         137.4928  144.1020  163.0410 C.ar    1  UNL1        0.0989
     28 N         138.5669  143.8431  162.0264 N.ar    1  UNL1       -0.2423
     29 C         140.0085  143.8555  162.4407 C.ar    1  UNL1        0.0988
@<TRIPOS>BOND
     1     3     4    2
     2     4     1    1
     3     1    17    1
     4    17    18    1
     5    18    19   ar
     6    19    20   ar
     7    20    21   ar
     8    21    22   ar
     9    22    23   ar
    10    23    24    1
    11    24    25   ar
    12    25    26   ar
    13    26    27   ar
    14    27    28   ar
    15    28    29   ar
    16     4     5    1
    17     5     6   ar
    18     6     7   ar
    19     7     8   ar
    20     8     9   ar
    21     9    10   ar
    22     4    11    1
    23    11    12   ar
    24    12    13   ar
    25    13    14   ar
    26    14    15   ar
    27    15    16   ar
    28    23    18   ar
    29    29    24   ar
    30    10     5   ar
    31    16    11   ar
    32     1     2    1
@<TRIPOS>MOLECULE
*****
 29 32 0 0 0
SMALL
GASTEIGER

@<TRIPOS>ATOM
      1 N         141.5612  142.8017  166.3831 N.3     1  UNL1       -0.2453
      2 H         141.6500  143.6602  165.8395 H       1  UNL1        0.1309
      3 O         143.7681  140.9775  165.4876 O.2     1  UNL1       -0.2944
      4 P         142.6646  141.8896  165.9354 P.3     1  UNL1        0.2089
      5 C         142.5780  142.4638  164.5524 C.ar    1  UNL1        0.0464
      6 C         142.8346  143.9248  164.3293 C.ar    1  UNL1        0.0044
      7 C         142.7480  144.4989  162.9463 C.ar    1  UNL1        0.0002
      8 C         142.4048  143.6121  161.7862 C.ar    1  UNL1        0.0000
      9 C         142.1481  142.1511  162.0092 C.ar    1  UNL1        0.0002
     10 C         142.2348  141.5770  163.3923 C.ar    1  UNL1        0.0044
     11 C         142.7513  141.3155  167.3184 C.ar    1  UNL1        0.0464
     12 C         142.4355  139.8676  167.5506 C.ar    1  UNL1        0.0044
     13 C         142.5221  139.2935  168.9337 C.ar    1  UNL1        0.0002
     14 C         142.9245  140.1672  170.0846 C.ar    1  UNL1        0.0000
     15 C         143.2403  141.6151  169.8525 C.ar    1  UNL1        0.0002
     16 C         143.1537  142.1893  168.4694 C.ar    1  UNL1        0.0044
     17 C         140.1317  142.3622  166.2682 C.3     1  UNL1        0.1014
     18 C         139.3064  142.7942  165.0924 C.ar    1  UNL1       -0.0060
     19 C         139.2164  144.2476  164.7328 C.ar    1  UNL1       -0.0029
     20 C         138.3912  144.6795  163.5570 C.ar    1  UNL1       -0.0003
     21 C         137.6560  143.6580  162.7409 C.ar    1  UNL1       -0.0000
     22 C         137.7461  142.2045  163.1006 C.ar    1  UNL1       -0.0002
     23 C         138.5713  141.7726  164.2763 C.ar    1  UNL1       -0.0012
     24 C         138.6614  140.3191  164.6360 C.ar    1  UNL1        0.0189
     25 C         138.0524  139.8237  165.9142 C.ar    1  UNL1        0.0031
     26 C         138.1424  138.3703  166.2739 C.ar    1  UNL1        0.0207
     27 C         138.8415  137.4122  165.3555 C.ar    1  UNL1        0.0989
     28 N         139.4505  137.9077  164.0773 N.ar    1  UNL1       -0.2423
     29 C         139.3604  139.3612  163.7176 C.ar    1  UNL1        0.0988
@<TRIPOS>BOND
     1     3     4    2
     2     4     1    1
     3     1    17    1
     4    17    18    1
     5    18    19   ar
     6    19    20   ar
     7    20    21   ar
     8    21    22   ar
     9    22    23   ar
    10    23    24    1
    11    24    25   ar
    12    25    26   ar
    13    26    27   ar
    14    27    28   ar
    15    28    29   ar
    16     4     5    1
    17     5     6   ar
    18     6     7   ar
    19     7     8   ar
    20     8     9   ar
    21     9    10   ar
    22     4    11    1
    23    11    12   ar
    24    12    13   ar
    25    13    14   ar
    26    14    15   ar
    27    15    16   ar
    28    23    18   ar
    29    29    24   ar
    30    10     5   ar
    31    16    11   ar
    32     1     2    1
@<TRIPOS>MOLECULE
*****
 29 32 0 0 0
SMALL
GASTEIGER

@<TRIPOS>ATOM
      1 N         139.2642  142.0950  165.4448 N.3     1  UNL1       -0.2453
      2 H         138.6739  141.4053  165.9097 H       1  UNL1        0.1309
      3 O         140.0784  140.9054  162.8138 O.2     1  UNL1       -0.2944
      4 P         139.6713  141.5002  164.1293 P.3     1  UNL1        0.2089
      5 C         139.9638  142.8726  163.5993 C.ar    1  UNL1        0.0464
      6 C         141.3750  143.2680  163.2792 C.ar    1  UNL1        0.0044
      7 C         141.6675  144.6404  162.7492 C.ar    1  UNL1        0.0002
      8 C         140.5489  145.6174  162.5392 C.ar    1  UNL1        0.0000
      9 C         139.1378  145.2221  162.8592 C.ar    1  UNL1        0.0002
     10 C         138.8452  143.8497  163.3893 C.ar    1  UNL1        0.0044
     11 C         139.3788  140.1279  164.6593 C.ar    1  UNL1        0.0464
     12 C         140.2381  138.9677  164.2521 C.ar    1  UNL1        0.0044
     13 C         139.9456  137.5953  164.7822 C.ar    1  UNL1        0.0002
     14 C         138.7939  137.3830  165.7194 C.ar    1  UNL1        0.0000
     15 C         137.9346  138.5431  166.1266 C.ar    1  UNL1        0.0002
     16 C         138.2271  139.9156  165.5966 C.ar    1  UNL1        0.0044
     17 C         140.3106  142.5085  166.4368 C.3     1  UNL1        0.1014
     18 C         140.8242  141.5198  167.4412 C.ar    1  UNL1       -0.0060
     19 C         139.9381  141.0583  168.5601 C.ar    1  UNL1       -0.0029
     20 C         140.4517  140.0696  169.5644 C.ar    1  UNL1       -0.0003
     21 C         141.8514  139.5425  169.4498 C.ar    1  UNL1       -0.0000
     22 C         142.7374  140.0040  168.3310 C.ar    1  UNL1       -0.0002
     23 C         142.2238  140.9927  167.3267 C.ar    1  UNL1       -0.0012
     24 C         143.1099  141.4543  166.2078 C.ar    1  UNL1        0.0189
     25 C         143.7206  142.8236  166.2509 C.ar    1  UNL1        0.0031
     26 C         144.6066  143.2853  165.1320 C.ar    1  UNL1        0.0207
     27 C         144.8820  142.3775  163.9700 C.ar    1  UNL1        0.0989
     28 N         144.2713  141.0081  163.9269 N.ar    1  UNL1       -0.2423
     29 C         143.3852  140.5465  165.0458 C.ar    1  UNL1        0.0988
@<TRIPOS>BOND
     1     3     4    2
     2     4     1    1
     3     1    17    1
     4    17    18    1
     5    18    19   ar
     6    19    20   ar
     7    20    21   ar
     8    21    22   ar
     9    22    23   ar
    10    23    24    1
    11    24    25   ar
    12    25    26   ar
    13    26    27   ar
    14    27    28   ar
    15    28    29   ar
    16     4     5    1
    17     5     6   ar
    18     6     7   ar
    19     7     8   ar
    20     8     9   ar
    21     9    10   ar
    22     4    11    1
    23    11    12   ar
    24    12    13   ar
    25    13    14   ar
    26    14    15   ar
    27    15    16   ar
    28    23    18   ar
    29    29    24   ar
    30    10     5   ar
    31    16    11   ar
    32     1     2    1
@<TRIPOS>MOLECULE
*****
 29 32 0 0 0
SMALL
GASTEIGER

@<TRIPOS>ATOM
      1 N         141.5338  142.7149  166.4354 N.3     1  UNL1       -0.2453
      2 H         141.6394  143.5674  165.8854 H       1  UNL1        0.1309
      3 O         143.7189  140.8500  165.5708 O.2     1  UNL1       -0.2944
      4 P         142.6263  141.7825  166.0031 P.3     1  UNL1        0.2089
      5 C         142.7143  141.2386  167.3982 C.ar    1  UNL1        0.0464
      6 C         143.1148  142.1380  168.5300 C.ar    1  UNL1        0.0044
      7 C         143.2027  141.5941  169.9251 C.ar    1  UNL1        0.0002
      8 C         142.8902  140.1509  170.1885 C.ar    1  UNL1        0.0000
      9 C         142.4896  139.2516  169.0569 C.ar    1  UNL1        0.0002
     10 C         142.4017  139.7954  167.6617 C.ar    1  UNL1        0.0044
     11 C         142.5384  142.3264  164.6080 C.ar    1  UNL1        0.0464
     12 C         142.7974  143.7817  164.3525 C.ar    1  UNL1        0.0044
     13 C         142.7094  144.3255  162.9574 C.ar    1  UNL1        0.0002
     14 C         142.3625  143.4142  161.8176 C.ar    1  UNL1        0.0000
     15 C         142.1035  141.9590  162.0730 C.ar    1  UNL1        0.0002
     16 C         142.1914  141.4150  163.4682 C.ar    1  UNL1        0.0044
     17 C         140.0986  142.2961  166.3138 C.3     1  UNL1        0.1014
     18 C         139.2843  142.7424  165.1357 C.ar    1  UNL1       -0.0060
     19 C         139.2116  144.1984  164.7826 C.ar    1  UNL1       -0.0029
     20 C         138.3973  144.6446  163.6046 C.ar    1  UNL1       -0.0003
     21 C         137.6558  143.6348  162.7796 C.ar    1  UNL1       -0.0000
     22 C         137.7285  142.1789  163.1327 C.ar    1  UNL1       -0.0002
     23 C         138.5428  141.7326  164.3108 C.ar    1  UNL1       -0.0012
     24 C         138.6155  140.2766  164.6640 C.ar    1  UNL1        0.0189
     25 C         138.0560  139.7925  165.9688 C.ar    1  UNL1        0.0031
     26 C         138.1287  138.3365  166.3220 C.ar    1  UNL1        0.0207
     27 C         138.7610  137.3645  165.3703 C.ar    1  UNL1        0.0989
     28 N         139.3206  137.8486  164.0655 N.ar    1  UNL1       -0.2423
     29 C         139.2479  139.3047  163.7124 C.ar    1  UNL1        0.0988
@<TRIPOS>BOND
     1     3     4    2
     2     4     1    1
     3     1    17    1
     4    17    18    1
     5    18    19   ar
     6    19    20   ar
     7    20    21   ar
     8    21    22   ar
     9    22    23   ar
    10    23    24    1
    11    24    25   ar
    12    25    26   ar
    13    26    27   ar
    14    27    28   ar
    15    28    29   ar
    16     4     5    1
    17     5     6   ar
    18     6     7   ar
    19     7     8   ar
    20     8     9   ar
    21     9    10   ar
    22     4    11    1
    23    11    12   ar
    24    12    13   ar
    25    13    14   ar
    26    14    15   ar
    27    15    16   ar
    28    23    18   ar
    29    29    24   ar
    30    10     5   ar
    31    16    11   ar
    32     1     2    1
@<TRIPOS>MOLECULE
*****
 29 32 0 0 0
SMALL
GASTEIGER

@<TRIPOS>ATOM
      1 N         139.9363  142.0646  165.0479 N.3     1  UNL1       -0.2453
      2 H         139.5034  141.4732  165.7573 H       1  UNL1        0.1309
      3 O         139.0430  141.0156  162.3830 O.2     1  UNL1       -0.2944
      4 P         139.4896  141.5401  163.7155 P.3     1  UNL1        0.2089
      5 C         139.1857  140.2109  164.3406 C.ar    1  UNL1        0.0464
      6 C         138.3736  140.1424  165.5999 C.ar    1  UNL1        0.0044
      7 C         138.0697  138.8132  166.2250 C.ar    1  UNL1        0.0002
      8 C         138.5778  137.5524  165.5908 C.ar    1  UNL1        0.0000
      9 C         139.3899  137.6208  164.3316 C.ar    1  UNL1        0.0002
     10 C         139.6938  138.9501  163.7064 C.ar    1  UNL1        0.0044
     11 C         139.7936  142.8693  163.0904 C.ar    1  UNL1        0.0464
     12 C         138.9840  144.0760  163.4628 C.ar    1  UNL1        0.0044
     13 C         139.2879  145.4052  162.8377 C.ar    1  UNL1        0.0002
     14 C         140.4014  145.5278  161.8402 C.ar    1  UNL1        0.0000
     15 C         141.2110  144.3213  161.4678 C.ar    1  UNL1        0.0002
     16 C         140.9071  142.9920  162.0929 C.ar    1  UNL1        0.0044
     17 C         141.3986  142.1333  165.3750 C.3     1  UNL1        0.1014
     18 C         142.1569  140.8776  165.6881 C.ar    1  UNL1       -0.0060
     19 C         142.9187  140.1718  164.6058 C.ar    1  UNL1       -0.0029
     20 C         143.6770  138.9161  164.9189 C.ar    1  UNL1       -0.0003
     21 C         143.6735  138.3661  166.3145 C.ar    1  UNL1       -0.0000
     22 C         142.9118  139.0719  167.3968 C.ar    1  UNL1       -0.0002
     23 C         142.1535  140.3276  167.0837 C.ar    1  UNL1       -0.0012
     24 C         141.3916  141.0334  168.1661 C.ar    1  UNL1        0.0189
     25 C         140.1560  140.4087  168.7432 C.ar    1  UNL1        0.0031
     26 C         139.3942  141.1144  169.8255 C.ar    1  UNL1        0.0207
     27 C         139.8679  142.4450  170.3308 C.ar    1  UNL1        0.0989
     28 N         141.1035  143.0697  169.7537 N.ar    1  UNL1       -0.2423
     29 C         141.8653  142.3639  168.6713 C.ar    1  UNL1        0.0988
@<TRIPOS>BOND
     1     3     4    2
     2     4     1    1
     3     1    17    1
     4    17    18    1
     5    18    19   ar
     6    19    20   ar
     7    20    21   ar
     8    21    22   ar
     9    22    23   ar
    10    23    24    1
    11    24    25   ar
    12    25    26   ar
    13    26    27   ar
    14    27    28   ar
    15    28    29   ar
    16     4     5    1
    17     5     6   ar
    18     6     7   ar
    19     7     8   ar
    20     8     9   ar
    21     9    10   ar
    22     4    11    1
    23    11    12   ar
    24    12    13   ar
    25    13    14   ar
    26    14    15   ar
    27    15    16   ar
    28    23    18   ar
    29    29    24   ar
    30    10     5   ar
    31    16    11   ar
    32     1     2    1
@<TRIPOS>MOLECULE
*****
 29 32 0 0 0
SMALL
GASTEIGER

@<TRIPOS>ATOM
      1 N         141.2410  140.4574  163.8319 N.3     1  UNL1       -0.2453
      2 H         140.3104  140.0404  163.8102 H       1  UNL1        0.1309
      3 O         142.4098  139.8272  166.5221 O.2     1  UNL1       -0.2944
      4 P         141.8254  140.1423  165.1770 P.3     1  UNL1        0.2089
      5 C         140.5407  139.4815  165.5804 C.ar    1  UNL1        0.0464
      6 C         140.1098  138.2092  164.9128 C.ar    1  UNL1        0.0044
      7 C         138.8251  137.5484  165.3162 C.ar    1  UNL1        0.0002
      8 C         137.9712  138.1599  166.3872 C.ar    1  UNL1        0.0000
      9 C         138.4020  139.4322  167.0547 C.ar    1  UNL1        0.0002
     10 C         139.6868  140.0930  166.6513 C.ar    1  UNL1        0.0044
     11 C         143.1102  140.8031  164.7736 C.ar    1  UNL1        0.0464
     12 C         143.4921  142.1262  165.3682 C.ar    1  UNL1        0.0044
     13 C         144.7768  142.7870  164.9648 C.ar    1  UNL1        0.0002
     14 C         145.6797  142.1247  163.9667 C.ar    1  UNL1        0.0000
     15 C         145.2979  140.8016  163.3721 C.ar    1  UNL1        0.0002
     16 C         144.0131  140.1408  163.7755 C.ar    1  UNL1        0.0044
     17 C         141.0863  141.8846  163.3971 C.3     1  UNL1        0.1014
     18 C         139.9625  142.7166  163.9405 C.ar    1  UNL1       -0.0060
     19 C         140.2310  143.7322  165.0111 C.ar    1  UNL1       -0.0029
     20 C         139.1073  144.5641  165.5544 C.ar    1  UNL1       -0.0003
     21 C         137.7151  144.3803  165.0271 C.ar    1  UNL1       -0.0000
     22 C         137.4467  143.3646  163.9565 C.ar    1  UNL1       -0.0002
     23 C         138.5704  142.5327  163.4132 C.ar    1  UNL1       -0.0012
     24 C         138.3019  141.5170  162.3425 C.ar    1  UNL1        0.0189
     25 C         137.8904  140.1239  162.7166 C.ar    1  UNL1        0.0031
     26 C         137.6220  139.1081  161.6460 C.ar    1  UNL1        0.0207
     27 C         137.7651  139.4854  160.2013 C.ar    1  UNL1        0.0989
     28 N         138.1766  140.8785  159.8272 N.ar    1  UNL1       -0.2423
     29 C         138.4450  141.8943  160.8978 C.ar    1  UNL1        0.0988
@<TRIPOS>BOND
     1     3     4    2
     2     4     1    1
     3     1    17    1
     4    17    18    1
     5    18    19   ar
     6    19    20   ar
     7    20    21   ar
     8    21    22   ar
     9    22    23   ar
    10    23    24    1
    11    24    25   ar
    12    25    26   ar
    13    26    27   ar
    14    27    28   ar
    15    28    29   ar
    16     4     5    1
    17     5     6   ar
    18     6     7   ar
    19     7     8   ar
    20     8     9   ar
    21     9    10   ar
    22     4    11    1
    23    11    12   ar
    24    12    13   ar
    25    13    14   ar
    26    14    15   ar
    27    15    16   ar
    28    23    18   ar
    29    29    24   ar
    30    10     5   ar
    31    16    11   ar
    32     1     2    1
@<TRIPOS>MOLECULE
*****
 29 32 0 0 0
SMALL
GASTEIGER

@<TRIPOS>ATOM
      1 N         141.7281  141.2850  166.0523 N.3     1  UNL1       -0.2453
      2 H         141.6388  140.7329  165.1993 H       1  UNL1        0.1309
      3 O         139.7291  140.1924  168.0043 O.2     1  UNL1       -0.2944
      4 P         140.7286  140.7387  167.0283 P.3     1  UNL1        0.2089
      5 C         141.3488  141.5571  168.1216 C.ar    1  UNL1        0.0464
      6 C         140.5311  142.5865  168.8439 C.ar    1  UNL1        0.0044
      7 C         141.1513  143.4050  169.9373 C.ar    1  UNL1        0.0002
      8 C         142.5893  143.1940  170.3084 C.ar    1  UNL1        0.0000
      9 C         143.4070  142.1647  169.5861 C.ar    1  UNL1        0.0002
     10 C         142.7868  141.3462  168.4927 C.ar    1  UNL1        0.0044
     11 C         140.1084  139.9203  165.9350 C.ar    1  UNL1        0.0464
     12 C         138.7791  140.3163  165.3636 C.ar    1  UNL1        0.0044
     13 C         138.1589  139.4979  164.2703 C.ar    1  UNL1        0.0002
     14 C         138.8678  138.2834  163.7482 C.ar    1  UNL1        0.0000
     15 C         140.1970  137.8874  164.3195 C.ar    1  UNL1        0.0002
     16 C         140.8173  138.7058  165.4129 C.ar    1  UNL1        0.0044
     17 C         141.6662  142.7268  165.6433 C.3     1  UNL1        0.1014
     18 C         140.4724  143.2440  164.8966 C.ar    1  UNL1       -0.0060
     19 C         139.3914  143.9819  165.6293 C.ar    1  UNL1       -0.0029
     20 C         138.1977  144.4991  164.8826 C.ar    1  UNL1       -0.0003
     21 C         138.0850  144.2783  163.4032 C.ar    1  UNL1       -0.0000
     22 C         139.1661  143.5405  162.6706 C.ar    1  UNL1       -0.0002
     23 C         140.3597  143.0233  163.4173 C.ar    1  UNL1       -0.0012
     24 C         141.4409  142.2854  162.6846 C.ar    1  UNL1        0.0189
     25 C         141.3043  140.8134  162.4301 C.ar    1  UNL1        0.0031
     26 C         142.3853  140.0755  161.6975 C.ar    1  UNL1        0.0207
     27 C         143.6030  140.8095  161.2193 C.ar    1  UNL1        0.0989
     28 N         143.7395  142.2814  161.4737 N.ar    1  UNL1       -0.2423
     29 C         142.6584  143.0194  162.2064 C.ar    1  UNL1        0.0988
@<TRIPOS>BOND
     1     3     4    2
     2     4     1    1
     3     1    17    1
     4    17    18    1
     5    18    19   ar
     6    19    20   ar
     7    20    21   ar
     8    21    22   ar
     9    22    23   ar
    10    23    24    1
    11    24    25   ar
    12    25    26   ar
    13    26    27   ar
    14    27    28   ar
    15    28    29   ar
    16     4     5    1
    17     5     6   ar
    18     6     7   ar
    19     7     8   ar
    20     8     9   ar
    21     9    10   ar
    22     4    11    1
    23    11    12   ar
    24    12    13   ar
    25    13    14   ar
    26    14    15   ar
    27    15    16   ar
    28    23    18   ar
    29    29    24   ar
    30    10     5   ar
    31    16    11   ar
    32     1     2    1
@<TRIPOS>MOLECULE
*****
 29 32 0 0 0
SMALL
GASTEIGER

@<TRIPOS>ATOM
      1 N         142.3440  140.7530  165.6119 N.3     1  UNL1       -0.2453
      2 H         142.4098  139.9254  166.2045 H       1  UNL1        0.1309
      3 O         143.7376  142.9744  167.0691 O.2     1  UNL1       -0.2944
      4 P         143.0408  141.8637  166.3405 P.3     1  UNL1        0.2089
      5 C         142.5075  141.3442  167.6426 C.ar    1  UNL1        0.0464
      6 C         142.7700  139.9238  168.0474 C.ar    1  UNL1        0.0044
      7 C         142.2366  139.4043  169.3495 C.ar    1  UNL1        0.0002
      8 C         141.4408  140.3050  170.2469 C.ar    1  UNL1        0.0000
      9 C         141.1783  141.7253  169.8422 C.ar    1  UNL1        0.0002
     10 C         141.7116  142.2449  168.5400 C.ar    1  UNL1        0.0044
     11 C         143.5742  142.3832  165.0384 C.ar    1  UNL1        0.0464
     12 C         144.4988  141.5362  164.2151 C.ar    1  UNL1        0.0044
     13 C         145.0321  142.0557  162.9130 C.ar    1  UNL1        0.0002
     14 C         144.6409  143.4223  162.4340 C.ar    1  UNL1        0.0000
     15 C         143.7163  144.2693  163.2572 C.ar    1  UNL1        0.0002
     16 C         143.1829  143.7498  164.5594 C.ar    1  UNL1        0.0044
     17 C         140.9012  140.8971  165.2280 C.3     1  UNL1        0.1014
     18 C         139.9106  139.8429  165.6247 C.ar    1  UNL1       -0.0060
     19 C         139.1454  139.9775  166.9077 C.ar    1  UNL1       -0.0029
     20 C         138.1549  138.9232  167.3044 C.ar    1  UNL1       -0.0003
     21 C         137.9295  137.7344  166.4179 C.ar    1  UNL1       -0.0000
     22 C         138.6947  137.5997  165.1348 C.ar    1  UNL1       -0.0002
     23 C         139.6852  138.6540  164.7382 C.ar    1  UNL1       -0.0012
     24 C         140.4505  138.5194  163.4550 C.ar    1  UNL1        0.0189
     25 C         141.8368  137.9468  163.4651 C.ar    1  UNL1        0.0031
     26 C         142.6020  137.8122  162.1821 C.ar    1  UNL1        0.0207
     27 C         141.9809  138.2502  160.8888 C.ar    1  UNL1        0.0989
     28 N         140.5945  138.8228  160.8787 N.ar    1  UNL1       -0.2423
     29 C         139.8293  138.9574  162.1619 C.ar    1  UNL1        0.0988
@<TRIPOS>BOND
     1     3     4    2
     2     4     1    1
     3     1    17    1
     4    17    18    1
     5    18    19   ar
     6    19    20   ar
     7    20    21   ar
     8    21    22   ar
     9    22    23   ar
    10    23    24    1
    11    24    25   ar
    12    25    26   ar
    13    26    27   ar
    14    27    28   ar
    15    28    29   ar
    16     4     5    1
    17     5     6   ar
    18     6     7   ar
    19     7     8   ar
    20     8     9   ar
    21     9    10   ar
    22     4    11    1
    23    11    12   ar
    24    12    13   ar
    25    13    14   ar
    26    14    15   ar
    27    15    16   ar
    28    23    18   ar
    29    29    24   ar
    30    10     5   ar
    31    16    11   ar
    32     1     2    1
