@<TRIPOS>MOLECULE
*****
 31 33 0 0 0
SMALL
GASTEIGER

@<TRIPOS>ATOM
      1 C         140.2258  140.5329  167.3900 C.ar    1  UNL1        0.0305
      2 C         140.6178  140.4461  165.9447 C.ar    1  UNL1        0.0148
      3 C         139.7813  139.6500  164.9873 C.ar    1  UNL1        0.0505
      4 C         138.5529  138.9409  165.4752 C.ar    1  UNL1        0.0170
      5 C         138.1609  139.0277  166.9204 C.ar    1  UNL1        0.0307
      6 C         138.9974  139.8237  167.8778 C.ar    1  UNL1        0.1383
      7 F         138.6054  139.9106  169.3231 F       1  UNL1       -0.2044
      8 C         140.3933  142.4427  167.5978 C.3     1  UNL1        0.0338
      9 C         141.0623  141.3289  168.3474 C.3     1  UNL1        0.1308
     10 C         141.4408  139.9388  168.7645 C.2     1  UNL1        0.0358
     11 C         142.4234  139.7313  169.8787 C.2     1  UNL1        0.1594
     12 O         143.0275  140.9142  170.5758 O.2     1  UNL1       -0.4276
     13 C         142.6490  142.3044  170.1587 C.2     1  UNL1        0.2815
     14 N         143.2532  143.4873  170.8558 N.pl3   1  UNL1       -0.3130
     15 N         141.6664  142.5118  169.0445 N.2     1  UNL1       -0.2196
     16 H         143.8981  143.3512  171.5871 H       1  UNL1        0.1466
     17 H         143.0047  144.3997  170.5820 H       1  UNL1        0.1466
     18 C         142.8019  138.3410  170.2958 C.3     1  UNL1        0.2567
     19 F         143.5168  137.4382  169.3346 F       1  UNL1       -0.2256
     20 N         140.1732  139.5632  163.5420 N.am    1  UNL1       -0.2791
     21 C         140.8533  138.3314  163.0221 C.2     1  UNL1        0.2672
     22 O         141.1414  137.1865  163.9475 O.2     1  UNL1       -0.2682
     23 H         139.9841  140.3146  162.9347 H       1  UNL1        0.1552
     24 C         141.2453  138.2445  161.5769 C.ar    1  UNL1        0.1348
     25 C         140.2705  138.6465  160.5099 C.ar    1  UNL1        0.0245
     26 C         140.6626  138.5595  159.0646 C.ar    1  UNL1        0.0135
     27 C         142.0292  138.0706  158.6863 C.ar    1  UNL1        0.0876
     28 C         143.0039  137.6687  159.7532 C.ar    1  UNL1        0.1092
     29 N         142.6120  137.7556  161.1985 N.ar    1  UNL1       -0.2385
     30 C         142.4212  137.9837  157.2411 C.1     1  UNL1        0.1020
     31 N         142.8131  137.8968  155.7957 N.1     1  UNL1       -0.1908
@<TRIPOS>BOND
     1     9     8    1
     2     9     1    1
     3     1     2   ar
     4     2     3   ar
     5     3    20    1
     6    20    21   am
     7    21    22    2
     8    21    24    1
     9    24    25   ar
    10    25    26   ar
    11    26    27   ar
    12    27    30    1
    13    30    31    3
    14    27    28   ar
    15    28    29   ar
    16     3     4   ar
    17     4     5   ar
    18     5     6   ar
    19     6     7    1
    20     9    10    1
    21    10    11    2
    22    11    18    1
    23    18    19    1
    24    11    12    1
    25    12    13    1
    26    13    14    1
    27    13    15    2
    28    15     9    1
    29     6     1   ar
    30    29    24   ar
    31    20    23    1
    32    14    16    1
    33    14    17    1
@<TRIPOS>MOLECULE
*****
 31 33 0 0 0
SMALL
GASTEIGER

@<TRIPOS>ATOM
      1 C         141.0088  140.2861  166.6271 C.ar    1  UNL1        0.0305
      2 C         140.6067  141.0086  165.3756 C.ar    1  UNL1        0.0148
      3 C         141.5819  141.1494  164.2447 C.ar    1  UNL1        0.0505
      4 C         142.9592  140.5676  164.3652 C.ar    1  UNL1        0.0170
      5 C         143.3613  139.8451  165.6167 C.ar    1  UNL1        0.0307
      6 C         142.3861  139.7043  166.7476 C.ar    1  UNL1        0.1383
      7 F         142.7882  138.9817  167.9992 F       1  UNL1       -0.2044
      8 C         139.6245  138.9745  166.9143 C.3     1  UNL1        0.0338
      9 C         140.0336  140.1453  167.7581 C.3     1  UNL1        0.1308
     10 C         140.7812  141.3649  168.2092 C.2     1  UNL1        0.0358
     11 C         140.4117  142.0371  169.4982 C.2     1  UNL1        0.1594
     12 O         139.2944  141.4897  170.3361 O.2     1  UNL1       -0.4276
     13 C         138.5467  140.2701  169.8851 C.2     1  UNL1        0.2815
     14 N         137.4294  139.7227  170.7230 N.pl3   1  UNL1       -0.3130
     15 N         138.9163  139.5979  168.5961 N.2     1  UNL1       -0.2196
     16 H         137.1869  140.1639  171.5690 H       1  UNL1        0.1466
     17 H         136.9387  138.9222  170.4269 H       1  UNL1        0.1466
     18 C         141.1594  143.2568  169.9493 C.3     1  UNL1        0.2567
     19 F         140.4862  144.5972  169.9346 F       1  UNL1       -0.2256
     20 N         141.1798  141.8719  162.9931 N.am    1  UNL1       -0.2791
     21 C         141.8597  143.1548  162.6165 C.2     1  UNL1        0.2672
     22 O         142.9417  143.7152  163.4914 O.2     1  UNL1       -0.2682
     23 H         140.4697  141.5042  162.4190 H       1  UNL1        0.1552
     24 C         141.4577  143.8774  161.3650 C.ar    1  UNL1        0.1348
     25 C         140.5515  145.0700  161.4457 C.ar    1  UNL1        0.0245
     26 C         140.1495  145.7926  160.1942 C.ar    1  UNL1        0.0135
     27 C         140.6537  145.3225  158.8620 C.ar    1  UNL1        0.0876
     28 C         141.5598  144.1299  158.7812 C.ar    1  UNL1        0.1092
     29 N         141.9619  143.4073  160.0327 N.ar    1  UNL1       -0.2385
     30 C         140.2516  146.0451  157.6105 C.1     1  UNL1        0.1020
     31 N         139.8496  146.7676  156.3589 N.1     1  UNL1       -0.1908
@<TRIPOS>BOND
     1     9     8    1
     2     9     1    1
     3     1     2   ar
     4     2     3   ar
     5     3    20    1
     6    20    21   am
     7    21    22    2
     8    21    24    1
     9    24    25   ar
    10    25    26   ar
    11    26    27   ar
    12    27    30    1
    13    30    31    3
    14    27    28   ar
    15    28    29   ar
    16     3     4   ar
    17     4     5   ar
    18     5     6   ar
    19     6     7    1
    20     9    10    1
    21    10    11    2
    22    11    18    1
    23    18    19    1
    24    11    12    1
    25    12    13    1
    26    13    14    1
    27    13    15    2
    28    15     9    1
    29     6     1   ar
    30    29    24   ar
    31    20    23    1
    32    14    16    1
    33    14    17    1
@<TRIPOS>MOLECULE
*****
 31 33 0 0 0
SMALL
GASTEIGER

@<TRIPOS>ATOM
      1 C         142.2130  140.3703  166.1773 C.ar    1  UNL1        0.0305
      2 C         141.9260  141.3568  165.0845 C.ar    1  UNL1        0.0148
      3 C         142.6091  141.2239  163.7557 C.ar    1  UNL1        0.0505
      4 C         143.5792  140.1044  163.5198 C.ar    1  UNL1        0.0170
      5 C         143.8663  139.1179  164.6127 C.ar    1  UNL1        0.0307
      6 C         143.1832  139.2509  165.9414 C.ar    1  UNL1        0.1383
      7 F         143.4702  138.2643  167.0344 F       1  UNL1       -0.2044
      8 C         142.8406  141.1618  167.8200 C.3     1  UNL1        0.0338
      9 C         141.5299  140.5033  167.5062 C.3     1  UNL1        0.1308
     10 C         140.4565  139.7986  166.7308 C.2     1  UNL1        0.0358
     11 C         139.1552  139.4555  167.3933 C.2     1  UNL1        0.1594
     12 O         138.9273  139.8172  168.8311 O.2     1  UNL1       -0.4276
     13 C         140.0007  140.5218  169.6064 C.2     1  UNL1        0.2815
     14 N         139.7728  140.8835  171.0443 N.pl3   1  UNL1       -0.3130
     15 N         141.3020  140.8649  168.9440 N.2     1  UNL1       -0.2196
     16 H         138.9187  140.6584  171.4791 H       1  UNL1        0.1466
     17 H         140.4774  141.3460  171.5532 H       1  UNL1        0.1466
     18 C         138.0818  138.7508  166.6179 C.3     1  UNL1        0.2567
     19 F         136.9633  138.0615  167.3420 F       1  UNL1       -0.2256
     20 N         142.3221  142.2104  162.6628 N.am    1  UNL1       -0.2791
     21 C         141.1524  141.9973  161.7482 C.2     1  UNL1        0.2672
     22 O         140.2697  140.7977  161.9267 O.2     1  UNL1       -0.2682
     23 H         142.9015  142.9977  162.5457 H       1  UNL1        0.1552
     24 C         140.8654  142.9837  160.6553 C.ar    1  UNL1        0.1348
     25 C         141.4288  144.3719  160.7309 C.ar    1  UNL1        0.0245
     26 C         141.1417  145.3583  159.6379 C.ar    1  UNL1        0.0135
     27 C         140.2913  144.9567  158.4695 C.ar    1  UNL1        0.0876
     28 C         139.7279  143.5686  158.3939 C.ar    1  UNL1        0.1092
     29 N         140.0149  142.5821  159.4868 N.ar    1  UNL1       -0.2385
     30 C         140.0043  145.9431  157.3766 C.1     1  UNL1        0.1020
     31 N         139.7172  146.9296  156.2836 N.1     1  UNL1       -0.1908
@<TRIPOS>BOND
     1     9     8    1
     2     9     1    1
     3     1     2   ar
     4     2     3   ar
     5     3    20    1
     6    20    21   am
     7    21    22    2
     8    21    24    1
     9    24    25   ar
    10    25    26   ar
    11    26    27   ar
    12    27    30    1
    13    30    31    3
    14    27    28   ar
    15    28    29   ar
    16     3     4   ar
    17     4     5   ar
    18     5     6   ar
    19     6     7    1
    20     9    10    1
    21    10    11    2
    22    11    18    1
    23    18    19    1
    24    11    12    1
    25    12    13    1
    26    13    14    1
    27    13    15    2
    28    15     9    1
    29     6     1   ar
    30    29    24   ar
    31    20    23    1
    32    14    16    1
    33    14    17    1
@<TRIPOS>MOLECULE
*****
 31 33 0 0 0
SMALL
GASTEIGER

@<TRIPOS>ATOM
      1 C         139.7243  139.2894  164.6531 C.ar    1  UNL1        0.0305
      2 C         140.0246  140.2660  163.5549 C.ar    1  UNL1        0.0148
      3 C         139.6829  139.9257  162.1346 C.ar    1  UNL1        0.0505
      4 C         139.0409  138.6088  161.8125 C.ar    1  UNL1        0.0170
      5 C         138.7407  137.6323  162.9107 C.ar    1  UNL1        0.0307
      6 C         139.0824  137.9726  164.3310 C.ar    1  UNL1        0.1383
      7 F         138.7821  136.9960  165.4294 F       1  UNL1       -0.2044
      8 C         138.6457  140.1097  166.0252 C.3     1  UNL1        0.0338
      9 C         140.0661  139.6297  166.0736 C.3     1  UNL1        0.1308
     10 C         141.3677  139.0316  165.6287 C.2     1  UNL1        0.0358
     11 C         142.5177  138.9404  166.5873 C.2     1  UNL1        0.1594
     12 O         142.3661  139.4474  167.9909 O.2     1  UNL1       -0.4276
     13 C         141.0645  140.0455  168.4358 C.2     1  UNL1        0.2815
     14 N         140.9129  140.5525  169.8394 N.pl3   1  UNL1       -0.3130
     15 N         139.9145  140.1367  167.4772 N.2     1  UNL1       -0.2196
     16 H         141.6677  140.4927  170.4686 H       1  UNL1        0.1466
     17 H         140.0586  140.9451  170.1314 H       1  UNL1        0.1466
     18 C         143.8194  138.3422  166.1424 C.3     1  UNL1        0.2567
     19 F         144.4582  137.2512  166.9497 F       1  UNL1       -0.2256
     20 N         139.9831  140.9022  161.0363 N.am    1  UNL1       -0.2791
     21 C         139.0188  142.0107  160.7340 C.2     1  UNL1        0.2672
     22 O         137.7543  142.1426  161.5300 O.2     1  UNL1       -0.2682
     23 H         140.8131  140.8157  160.5139 H       1  UNL1        0.1552
     24 C         139.3190  142.9873  159.6357 C.ar    1  UNL1        0.1348
     25 C         140.0451  144.2631  159.9442 C.ar    1  UNL1        0.0245
     26 C         140.3452  145.2396  158.8459 C.ar    1  UNL1        0.0135
     27 C         139.9194  144.9404  157.4391 C.ar    1  UNL1        0.0876
     28 C         139.1934  143.6645  157.1306 C.ar    1  UNL1        0.1092
     29 N         138.8932  142.6880  158.2288 N.ar    1  UNL1       -0.2385
     30 C         140.2196  145.9169  156.3409 C.1     1  UNL1        0.1020
     31 N         140.5198  146.8935  155.2426 N.1     1  UNL1       -0.1908
@<TRIPOS>BOND
     1     9     8    1
     2     9     1    1
     3     1     2   ar
     4     2     3   ar
     5     3    20    1
     6    20    21   am
     7    21    22    2
     8    21    24    1
     9    24    25   ar
    10    25    26   ar
    11    26    27   ar
    12    27    30    1
    13    30    31    3
    14    27    28   ar
    15    28    29   ar
    16     3     4   ar
    17     4     5   ar
    18     5     6   ar
    19     6     7    1
    20     9    10    1
    21    10    11    2
    22    11    18    1
    23    18    19    1
    24    11    12    1
    25    12    13    1
    26    13    14    1
    27    13    15    2
    28    15     9    1
    29     6     1   ar
    30    29    24   ar
    31    20    23    1
    32    14    16    1
    33    14    17    1
@<TRIPOS>MOLECULE
*****
 31 33 0 0 0
SMALL
GASTEIGER

@<TRIPOS>ATOM
      1 C         140.5346  141.4858  166.6712 C.ar    1  UNL1        0.0305
      2 C         141.0352  140.6658  165.5193 C.ar    1  UNL1        0.0148
      3 C         141.2539  141.3072  164.1812 C.ar    1  UNL1        0.0505
      4 C         140.9720  142.7687  163.9950 C.ar    1  UNL1        0.0170
      5 C         140.4715  143.5887  165.1469 C.ar    1  UNL1        0.0307
      6 C         140.2528  142.9472  166.4850 C.ar    1  UNL1        0.1383
      7 F         139.7522  143.7672  167.6371 F       1  UNL1       -0.2044
      8 C         139.2620  140.1398  167.2075 C.3     1  UNL1        0.0338
      9 C         140.3159  140.8443  168.0095 C.3     1  UNL1        0.1308
     10 C         141.4457  141.7715  168.3466 C.2     1  UNL1        0.0358
     11 C         141.9908  141.8126  169.7434 C.2     1  UNL1        0.1594
     12 O         141.4061  140.9265  170.8031 O.2     1  UNL1       -0.4276
     13 C         140.2762  139.9993  170.4660 C.2     1  UNL1        0.2815
     14 N         139.6915  139.1131  171.5256 N.pl3   1  UNL1       -0.3130
     15 N         139.7311  139.9582  169.0691 N.2     1  UNL1       -0.2196
     16 H         140.0492  139.1401  172.4424 H       1  UNL1        0.1466
     17 H         138.9499  138.5046  171.3043 H       1  UNL1        0.1466
     18 C         143.1207  142.7399  170.0806 C.3     1  UNL1        0.2567
     19 F         144.5299  142.3634  169.7301 F       1  UNL1       -0.2256
     20 N         141.7545  140.4872  163.0291 N.am    1  UNL1       -0.2791
     21 C         140.8391  140.1623  161.8861 C.2     1  UNL1        0.2672
     22 O         139.4231  140.6574  161.8951 O.2     1  UNL1       -0.2682
     23 H         142.6838  140.1623  163.0233 H       1  UNL1        0.1552
     24 C         141.3396  139.3424  160.7341 C.ar    1  UNL1        0.1348
     25 C         142.5586  138.4838  160.8983 C.ar    1  UNL1        0.0245
     26 C         143.0591  137.6638  159.7462 C.ar    1  UNL1        0.0135
     27 C         142.3406  137.7024  158.4301 C.ar    1  UNL1        0.0876
     28 C         141.1217  138.5611  158.2659 C.ar    1  UNL1        0.1092
     29 N         140.6212  139.3810  159.4179 N.ar    1  UNL1       -0.2385
     30 C         142.8412  136.8825  157.2781 C.1     1  UNL1        0.1020
     31 N         143.3417  136.0625  156.1261 N.1     1  UNL1       -0.1908
@<TRIPOS>BOND
     1     9     8    1
     2     9     1    1
     3     1     2   ar
     4     2     3   ar
     5     3    20    1
     6    20    21   am
     7    21    22    2
     8    21    24    1
     9    24    25   ar
    10    25    26   ar
    11    26    27   ar
    12    27    30    1
    13    30    31    3
    14    27    28   ar
    15    28    29   ar
    16     3     4   ar
    17     4     5   ar
    18     5     6   ar
    19     6     7    1
    20     9    10    1
    21    10    11    2
    22    11    18    1
    23    18    19    1
    24    11    12    1
    25    12    13    1
    26    13    14    1
    27    13    15    2
    28    15     9    1
    29     6     1   ar
    30    29    24   ar
    31    20    23    1
    32    14    16    1
    33    14    17    1
@<TRIPOS>MOLECULE
*****
 31 33 0 0 0
SMALL
GASTEIGER

@<TRIPOS>ATOM
      1 C         141.7169  140.5370  167.6107 C.ar    1  UNL1        0.0305
      2 C         141.6526  140.9723  166.1767 C.ar    1  UNL1        0.0148
      3 C         142.4155  140.2173  165.1289 C.ar    1  UNL1        0.0505
      4 C         143.2428  139.0271  165.5151 C.ar    1  UNL1        0.0170
      5 C         143.3071  138.5919  166.9490 C.ar    1  UNL1        0.0307
      6 C         142.5441  139.3468  167.9969 C.ar    1  UNL1        0.1383
      7 F         142.6084  138.9116  169.4309 F       1  UNL1       -0.2044
      8 C         139.8211  140.6022  167.9579 C.3     1  UNL1        0.0338
      9 C         140.9540  141.2920  168.6586 C.3     1  UNL1        0.1308
     10 C         142.3517  141.7196  168.9953 C.2     1  UNL1        0.0358
     11 C         142.5931  142.6625  170.1366 C.2     1  UNL1        0.1594
     12 O         141.4367  143.1779  170.9411 O.2     1  UNL1       -0.4276
     13 C         140.0390  142.7503  170.6043 C.2     1  UNL1        0.2815
     14 N         138.8826  143.2657  171.4089 N.pl3   1  UNL1       -0.3130
     15 N         139.7976  141.8074  169.4631 N.2     1  UNL1       -0.2196
     16 H         139.0410  143.8846  172.1579 H       1  UNL1        0.1466
     17 H         137.9652  142.9850  171.1878 H       1  UNL1        0.1466
     18 C         143.9909  143.0901  170.4733 C.3     1  UNL1        0.2567
     19 F         145.0952  142.8959  169.4768 F       1  UNL1       -0.2256
     20 N         142.3513  140.6525  163.6948 N.am    1  UNL1       -0.2791
     21 C         143.1054  141.8689  163.2457 C.2     1  UNL1        0.2672
     22 O         143.9237  142.6501  164.2307 O.2     1  UNL1       -0.2682
     23 H         141.8142  140.1398  163.0483 H       1  UNL1        0.1552
     24 C         143.0411  142.3042  161.8117 C.ar    1  UNL1        0.1348
     25 C         144.0173  141.7517  160.8158 C.ar    1  UNL1        0.0245
     26 C         143.9530  142.1870  159.3817 C.ar    1  UNL1        0.0135
     27 C         142.9126  143.1747  158.9436 C.ar    1  UNL1        0.0876
     28 C         141.9365  143.7272  159.9396 C.ar    1  UNL1        0.1092
     29 N         142.0007  143.2920  161.3736 N.ar    1  UNL1       -0.2385
     30 C         142.8484  143.6100  157.5096 C.1     1  UNL1        0.1020
     31 N         142.7841  144.0452  156.0755 N.1     1  UNL1       -0.1908
@<TRIPOS>BOND
     1     9     8    1
     2     9     1    1
     3     1     2   ar
     4     2     3   ar
     5     3    20    1
     6    20    21   am
     7    21    22    2
     8    21    24    1
     9    24    25   ar
    10    25    26   ar
    11    26    27   ar
    12    27    30    1
    13    30    31    3
    14    27    28   ar
    15    28    29   ar
    16     3     4   ar
    17     4     5   ar
    18     5     6   ar
    19     6     7    1
    20     9    10    1
    21    10    11    2
    22    11    18    1
    23    18    19    1
    24    11    12    1
    25    12    13    1
    26    13    14    1
    27    13    15    2
    28    15     9    1
    29     6     1   ar
    30    29    24   ar
    31    20    23    1
    32    14    16    1
    33    14    17    1
@<TRIPOS>MOLECULE
*****
 31 33 0 0 0
SMALL
GASTEIGER

@<TRIPOS>ATOM
      1 C         140.7930  142.5480  164.6887 C.ar    1  UNL1        0.0305
      2 C         140.7770  142.8769  163.2254 C.ar    1  UNL1        0.0148
      3 C         140.0123  144.0696  162.7331 C.ar    1  UNL1        0.0505
      4 C         139.2635  144.9335  163.7041 C.ar    1  UNL1        0.0170
      5 C         139.2795  144.6047  165.1675 C.ar    1  UNL1        0.0307
      6 C         140.0443  143.4119  165.6598 C.ar    1  UNL1        0.1383
      7 F         140.0603  143.0830  167.1233 F       1  UNL1       -0.2044
      8 C         142.6024  142.4194  165.3432 C.3     1  UNL1        0.0338
      9 C         141.5578  141.3552  165.1811 C.3     1  UNL1        0.1308
     10 C         140.2477  140.7052  164.8481 C.2     1  UNL1        0.0358
     11 C         140.0650  139.2321  165.0636 C.2     1  UNL1        0.1594
     12 O         141.1926  138.4089  165.6123 O.2     1  UNL1       -0.4276
     13 C         142.5028  139.0589  165.9453 C.2     1  UNL1        0.2815
     14 N         143.6303  138.2357  166.4940 N.pl3   1  UNL1       -0.3130
     15 N         142.6854  140.5320  165.7298 N.2     1  UNL1       -0.2196
     16 H         143.5105  137.2688  166.6355 H       1  UNL1        0.1466
     17 H         144.4903  138.6623  166.7126 H       1  UNL1        0.1466
     18 C         138.7548  138.5821  164.7305 C.3     1  UNL1        0.2567
     19 F         138.7277  137.3259  163.9112 F       1  UNL1       -0.2256
     20 N         139.9962  144.3985  161.2696 N.am    1  UNL1       -0.2791
     21 C         141.2767  144.7271  160.5607 C.2     1  UNL1        0.2672
     22 O         142.5731  144.7267  161.3153 O.2     1  UNL1       -0.2682
     23 H         139.1454  144.3988  160.7744 H       1  UNL1        0.1552
     24 C         141.2607  145.0560  159.0973 C.ar    1  UNL1        0.1348
     25 C         140.0799  145.7625  158.5002 C.ar    1  UNL1        0.0245
     26 C         140.0639  146.0914  157.0368 C.ar    1  UNL1        0.0135
     27 C         141.2288  145.7138  156.1705 C.ar    1  UNL1        0.0876
     28 C         142.4096  145.0073  156.7676 C.ar    1  UNL1        0.1092
     29 N         142.4256  144.6784  158.2309 N.ar    1  UNL1       -0.2385
     30 C         141.2128  146.0427  154.7071 C.1     1  UNL1        0.1020
     31 N         141.1968  146.3717  153.2436 N.1     1  UNL1       -0.1908
@<TRIPOS>BOND
     1     9     8    1
     2     9     1    1
     3     1     2   ar
     4     2     3   ar
     5     3    20    1
     6    20    21   am
     7    21    22    2
     8    21    24    1
     9    24    25   ar
    10    25    26   ar
    11    26    27   ar
    12    27    30    1
    13    30    31    3
    14    27    28   ar
    15    28    29   ar
    16     3     4   ar
    17     4     5   ar
    18     5     6   ar
    19     6     7    1
    20     9    10    1
    21    10    11    2
    22    11    18    1
    23    18    19    1
    24    11    12    1
    25    12    13    1
    26    13    14    1
    27    13    15    2
    28    15     9    1
    29     6     1   ar
    30    29    24   ar
    31    20    23    1
    32    14    16    1
    33    14    17    1
@<TRIPOS>MOLECULE
*****
 31 33 0 0 0
SMALL
GASTEIGER

@<TRIPOS>ATOM
      1 C         140.7570  139.3622  164.5548 C.ar    1  UNL1        0.0305
      2 C         140.5166  140.4793  163.5831 C.ar    1  UNL1        0.0148
      3 C         141.6423  140.9890  162.7329 C.ar    1  UNL1        0.0505
      4 C         143.0085  140.3816  162.8543 C.ar    1  UNL1        0.0170
      5 C         143.2489  139.2644  163.8259 C.ar    1  UNL1        0.0307
      6 C         142.1232  138.7547  164.6762 C.ar    1  UNL1        0.1383
      7 F         142.3635  137.6375  165.6479 F       1  UNL1       -0.2044
      8 C         139.4514  137.9904  164.1906 C.3     1  UNL1        0.0338
      9 C         139.6313  138.8524  165.4051 C.3     1  UNL1        0.1308
     10 C         140.2021  139.8913  166.3241 C.2     1  UNL1        0.0358
     11 C         139.5847  140.1212  167.6717 C.2     1  UNL1        0.1594
     12 O         138.3965  139.3120  168.1002 O.2     1  UNL1       -0.4276
     13 C         137.8257  138.2731  167.1811 C.2     1  UNL1        0.2815
     14 N         136.6375  137.4640  167.6096 N.pl3   1  UNL1       -0.3130
     15 N         138.4431  138.0433  165.8335 N.2     1  UNL1       -0.2196
     16 H         136.2323  137.6148  168.4941 H       1  UNL1        0.1466
     17 H         136.2629  136.7821  167.0064 H       1  UNL1        0.1466
     18 C         140.1556  141.1602  168.5908 C.3     1  UNL1        0.2567
     19 F         140.2998  142.5779  168.1225 F       1  UNL1       -0.2256
     20 N         141.4020  142.1062  161.7612 N.am    1  UNL1       -0.2791
     21 C         140.7538  141.8232  160.4384 C.2     1  UNL1        0.2672
     22 O         140.3460  140.4230  160.0873 O.2     1  UNL1       -0.2682
     23 H         141.6696  143.0252  161.9916 H       1  UNL1        0.1552
     24 C         140.5134  142.9403  159.4667 C.ar    1  UNL1        0.1348
     25 C         140.2634  142.6349  158.0196 C.ar    1  UNL1        0.0245
     26 C         140.0230  143.7521  157.0479 C.ar    1  UNL1        0.0135
     27 C         140.0327  145.1747  157.5233 C.ar    1  UNL1        0.0876
     28 C         140.2827  145.4802  158.9704 C.ar    1  UNL1        0.1092
     29 N         140.5231  144.3630  159.9421 N.ar    1  UNL1       -0.2385
     30 C         139.7923  146.2918  156.5516 C.1     1  UNL1        0.1020
     31 N         139.5519  147.4090  155.5799 N.1     1  UNL1       -0.1908
@<TRIPOS>BOND
     1     9     8    1
     2     9     1    1
     3     1     2   ar
     4     2     3   ar
     5     3    20    1
     6    20    21   am
     7    21    22    2
     8    21    24    1
     9    24    25   ar
    10    25    26   ar
    11    26    27   ar
    12    27    30    1
    13    30    31    3
    14    27    28   ar
    15    28    29   ar
    16     3     4   ar
    17     4     5   ar
    18     5     6   ar
    19     6     7    1
    20     9    10    1
    21    10    11    2
    22    11    18    1
    23    18    19    1
    24    11    12    1
    25    12    13    1
    26    13    14    1
    27    13    15    2
    28    15     9    1
    29     6     1   ar
    30    29    24   ar
    31    20    23    1
    32    14    16    1
    33    14    17    1
@<TRIPOS>MOLECULE
*****
 31 33 0 0 0
SMALL
GASTEIGER

@<TRIPOS>ATOM
      1 C         140.2580  138.9393  162.9862 C.ar    1  UNL1        0.0305
      2 C         140.5255  139.9436  161.9046 C.ar    1  UNL1        0.0148
      3 C         139.4885  140.2080  160.8536 C.ar    1  UNL1        0.0505
      4 C         138.1839  139.4683  160.8842 C.ar    1  UNL1        0.0170
      5 C         137.9164  138.4640  161.9658 C.ar    1  UNL1        0.0307
      6 C         138.9535  138.1996  163.0168 C.ar    1  UNL1        0.1383
      7 F         138.6860  137.1953  164.0985 F       1  UNL1       -0.2044
      8 C         141.7626  137.7333  162.9672 C.3     1  UNL1        0.0338
      9 C         141.2950  138.6748  164.0372 C.3     1  UNL1        0.1308
     10 C         140.4674  139.7082  164.7422 C.2     1  UNL1        0.0358
     11 C         140.8391  140.1501  166.1266 C.2     1  UNL1        0.1594
     12 O         142.0385  139.5586  166.8060 O.2     1  UNL1       -0.4276
     13 C         142.8662  138.5252  166.1010 C.2     1  UNL1        0.2815
     14 N         144.0656  137.9337  166.7804 N.pl3   1  UNL1       -0.3130
     15 N         142.4945  138.0833  164.7166 N.2     1  UNL1       -0.2196
     16 H         144.3096  138.2237  167.6891 H       1  UNL1        0.1466
     17 H         144.6088  137.2554  166.3177 H       1  UNL1        0.1466
     18 C         140.0113  141.1835  166.8316 C.3     1  UNL1        0.2567
     19 F         139.5796  140.9583  168.2505 F       1  UNL1       -0.2256
     20 N         139.7560  141.2123  159.7719 N.am    1  UNL1       -0.2791
     21 C         139.0598  142.5408  159.7932 C.2     1  UNL1        0.2672
     22 O         138.0962  142.8651  160.8961 O.2     1  UNL1       -0.2682
     23 H         140.3884  140.9995  159.0481 H       1  UNL1        0.1552
     24 C         139.3273  143.5451  158.7116 C.ar    1  UNL1        0.1348
     25 C         138.9539  143.2359  157.2921 C.ar    1  UNL1        0.0245
     26 C         139.2213  144.2402  156.2104 C.ar    1  UNL1        0.0135
     27 C         139.8622  145.5537  156.5483 C.ar    1  UNL1        0.0876
     28 C         140.2355  145.8628  157.9679 C.ar    1  UNL1        0.1092
     29 N         139.9681  144.8586  159.0495 N.ar    1  UNL1       -0.2385
     30 C         140.1296  146.5579  155.4667 C.1     1  UNL1        0.1020
     31 N         140.3971  147.5623  154.3851 N.1     1  UNL1       -0.1908
@<TRIPOS>BOND
     1     9     8    1
     2     9     1    1
     3     1     2   ar
     4     2     3   ar
     5     3    20    1
     6    20    21   am
     7    21    22    2
     8    21    24    1
     9    24    25   ar
    10    25    26   ar
    11    26    27   ar
    12    27    30    1
    13    30    31    3
    14    27    28   ar
    15    28    29   ar
    16     3     4   ar
    17     4     5   ar
    18     5     6   ar
    19     6     7    1
    20     9    10    1
    21    10    11    2
    22    11    18    1
    23    18    19    1
    24    11    12    1
    25    12    13    1
    26    13    14    1
    27    13    15    2
    28    15     9    1
    29     6     1   ar
    30    29    24   ar
    31    20    23    1
    32    14    16    1
    33    14    17    1
