@<TRIPOS>MOLECULE
*****
 33 37 0 0 0
SMALL
GASTEIGER

@<TRIPOS>ATOM
      1 N         142.8243  138.9259  164.1527 N.3     1  UNL1       -0.2679
      2 C         143.5682  140.2170  163.9806 C.3     1  UNL1        0.0978
      3 C         145.0620  140.2096  163.8447 C.3     1  UNL1        0.0224
      4 C         145.8059  141.5008  163.6726 C.3     1  UNL1        0.0065
      5 C         145.0560  142.7993  163.6365 C.3     1  UNL1        0.0277
      6 C         143.5621  142.8068  163.7724 C.ar    1  UNL1       -0.0073
      7 C         142.8122  144.1053  163.7362 C.ar    1  UNL1       -0.0015
      8 C         141.3184  144.1127  163.8721 C.ar    1  UNL1        0.0203
      9 C         140.5745  142.8216  164.0441 C.ar    1  UNL1        0.0985
     10 N         141.3245  141.5231  164.0803 N.ar    1  UNL1       -0.2471
     11 C         142.8183  141.5157  163.9444 C.ar    1  UNL1        0.0695
     12 C         142.6354  138.3460  165.5231 C.3     1  UNL1        0.0886
     13 C         140.4974  141.9156  170.9946 C.ar    1  UNL1        0.0204
     14 C         141.9369  141.5397  171.1855 C.ar    1  UNL1        0.0984
     15 N         142.6524  140.7506  170.1293 N.ar    1  UNL1       -0.2484
     16 C         141.9284  140.3374  168.8824 C.ar    1  UNL1        0.0577
     17 C         140.4889  140.7133  168.6915 C.ar    1  UNL1        0.0073
     18 C         139.7734  141.5024  169.7476 C.ar    1  UNL1       -0.0002
     19 C         139.7648  140.3001  167.4445 C.3     1  UNL1        0.0968
     20 N         140.4803  139.5110  166.3883 N.3     1  UNL1       -0.2934
     21 C         141.9199  139.1351  166.5793 C.3     1  UNL1        0.0764
     22 C         142.6439  139.5483  167.8262 C.3     1  UNL1        0.0626
     23 H         140.4301  140.0569  165.5282 H       1  UNL1        0.1236
     24 C         142.2693  138.2146  162.9543 C.3     1  UNL1        0.0725
     25 C         141.1308  137.2513  163.1146 C.3     1  UNL1        0.0188
     26 C         139.7397  137.6643  162.7346 C.3     1  UNL1        0.0188
     27 C         139.5205  138.5651  161.5554 C.3     1  UNL1        0.0723
     28 N         138.8498  139.8939  161.7410 N.3     1  UNL1       -0.2685
     29 C         137.9787  140.1335  162.9383 C.3     1  UNL1        0.1046
     30 C         137.3080  141.4623  163.1240 C.3     1  UNL1        0.1595
     31 O         137.5084  142.5515  162.1124 O.3     1  UNL1       -0.3508
     32 C         138.3796  142.3119  160.9150 C.3     1  UNL1        0.1595
     33 C         139.0503  140.9831  160.7293 C.3     1  UNL1        0.1046
@<TRIPOS>BOND
     1    13    14   ar
     2    14    15   ar
     3    15    16   ar
     4    16    17   ar
     5    17    18   ar
     6    17    19    1
     7    19    20    1
     8    20    21    1
     9    21    12    1
    10    12     1    1
    11     1    24    1
    12    24    25    1
    13    25    26    1
    14    26    27    1
    15    27    28    1
    16    28    29    1
    17    29    30    1
    18    30    31    1
    19    31    32    1
    20    32    33    1
    21     2     1    1
    22     2     3    1
    23     3     4    1
    24     4     5    1
    25     5     6    1
    26     6     7   ar
    27     7     8   ar
    28     8     9   ar
    29     9    10   ar
    30    10    11   ar
    31    21    22    1
    32    18    13   ar
    33    33    28    1
    34    11     2    1
    35    22    16    1
    36    11     6   ar
    37    20    23    1
@<TRIPOS>MOLECULE
*****
 33 37 0 0 0
SMALL
GASTEIGER

@<TRIPOS>ATOM
      1 N         138.2757  140.6923  163.3241 N.3     1  UNL1       -0.2679
      2 C         138.7332  142.0862  163.6361 C.3     1  UNL1        0.0978
      3 C         137.8002  143.0489  164.3090 C.3     1  UNL1        0.0224
      4 C         138.2578  144.4429  164.6211 C.3     1  UNL1        0.0065
      5 C         139.6484  144.8742  164.2603 C.3     1  UNL1        0.0277
      6 C         140.5814  143.9116  163.5875 C.ar    1  UNL1       -0.0073
      7 C         141.9720  144.3429  163.2267 C.ar    1  UNL1       -0.0015
      8 C         142.9050  143.3803  162.5539 C.ar    1  UNL1        0.0203
      9 C         142.4475  141.9863  162.2418 C.ar    1  UNL1        0.0985
     10 N         141.0569  141.5550  162.6025 N.ar    1  UNL1       -0.2471
     11 C         140.1239  142.5176  163.2754 C.ar    1  UNL1        0.0695
     12 C         138.2753  139.6449  164.3979 C.3     1  UNL1        0.0886
     13 C         142.2039  139.7798  170.0369 C.ar    1  UNL1        0.0204
     14 C         140.7649  139.9162  170.4376 C.ar    1  UNL1        0.0984
     15 N         139.6914  139.9165  169.3900 N.ar    1  UNL1       -0.2484
     16 C         140.0568  139.7804  167.9416 C.ar    1  UNL1        0.0577
     17 C         141.4958  139.6439  167.5409 C.ar    1  UNL1        0.0073
     18 C         142.5693  139.6436  168.5885 C.ar    1  UNL1       -0.0002
     19 C         141.8614  139.5078  166.0924 C.3     1  UNL1        0.0968
     20 N         140.7879  139.5081  165.0448 N.3     1  UNL1       -0.2934
     21 C         139.3488  139.6446  165.4456 C.3     1  UNL1        0.0764
     22 C         138.9833  139.7807  166.8939 C.3     1  UNL1        0.0626
     23 H         140.8703  138.6264  164.5385 H       1  UNL1        0.1236
     24 C         137.8184  140.3456  161.9381 C.3     1  UNL1        0.0725
     25 C         137.7346  138.9095  161.5133 C.3     1  UNL1        0.0188
     26 C         138.9406  138.2249  160.9416 C.3     1  UNL1        0.0188
     27 C         140.1209  137.9284  161.8187 C.3     1  UNL1        0.0723
     28 N         141.5090  138.2253  161.3339 N.3     1  UNL1       -0.2685
     29 C         141.7243  138.7249  159.9360 C.3     1  UNL1        0.1046
     30 C         143.1124  139.0218  159.4512 C.3     1  UNL1        0.1595
     31 O         144.2851  138.8191  160.3641 O.3     1  UNL1       -0.3508
     32 C         144.0698  138.3195  161.7620 C.3     1  UNL1        0.1595
     33 C         142.6817  138.0226  162.2469 C.3     1  UNL1        0.1046
@<TRIPOS>BOND
     1    13    14   ar
     2    14    15   ar
     3    15    16   ar
     4    16    17   ar
     5    17    18   ar
     6    17    19    1
     7    19    20    1
     8    20    21    1
     9    21    12    1
    10    12     1    1
    11     1    24    1
    12    24    25    1
    13    25    26    1
    14    26    27    1
    15    27    28    1
    16    28    29    1
    17    29    30    1
    18    30    31    1
    19    31    32    1
    20    32    33    1
    21     2     1    1
    22     2     3    1
    23     3     4    1
    24     4     5    1
    25     5     6    1
    26     6     7   ar
    27     7     8   ar
    28     8     9   ar
    29     9    10   ar
    30    10    11   ar
    31    21    22    1
    32    18    13   ar
    33    33    28    1
    34    11     2    1
    35    22    16    1
    36    11     6   ar
    37    20    23    1
@<TRIPOS>MOLECULE
*****
 33 37 0 0 0
SMALL
GASTEIGER

@<TRIPOS>ATOM
      1 N         142.2504  139.6490  162.6616 N.3     1  UNL1       -0.2679
      2 C         140.7826  139.4550  162.4211 C.3     1  UNL1        0.0978
      3 C         140.2934  138.2192  161.7258 C.3     1  UNL1        0.0224
      4 C         138.8255  138.0252  161.4852 C.3     1  UNL1        0.0065
      5 C         137.8469  139.0670  161.9400 C.3     1  UNL1        0.0277
      6 C         138.3361  140.3028  162.6353 C.ar    1  UNL1       -0.0073
      7 C         137.3574  141.3446  163.0901 C.ar    1  UNL1       -0.0015
      8 C         137.8466  142.5805  163.7854 C.ar    1  UNL1        0.0203
      9 C         139.3144  142.7745  164.0259 C.ar    1  UNL1        0.0985
     10 N         140.2930  141.7327  163.5711 N.ar    1  UNL1       -0.2471
     11 C         139.8038  140.4968  162.8758 C.ar    1  UNL1        0.0695
     12 C         142.8822  139.1157  163.9132 C.3     1  UNL1        0.0886
     13 C         142.6883  141.6278  170.3087 C.ar    1  UNL1        0.0204
     14 C         142.7529  140.1305  170.3710 C.ar    1  UNL1        0.0984
     15 N         142.8046  139.3286  169.1044 N.ar    1  UNL1       -0.2484
     16 C         142.7917  140.0240  167.7754 C.ar    1  UNL1        0.0577
     17 C         142.7271  141.5213  167.7131 C.ar    1  UNL1        0.0073
     18 C         142.6754  142.3232  168.9797 C.ar    1  UNL1       -0.0002
     19 C         142.7142  142.2168  166.3841 C.3     1  UNL1        0.0968
     20 N         142.7659  141.4149  165.1174 N.3     1  UNL1       -0.2934
     21 C         142.8305  139.9176  165.1798 C.3     1  UNL1        0.0764
     22 C         142.8434  139.2222  166.5088 C.3     1  UNL1        0.0626
     23 H         143.5928  141.7243  164.6066 H       1  UNL1        0.1236
     24 C         143.0864  140.3763  161.6506 C.3     1  UNL1        0.0725
     25 C         144.5454  140.6076  161.9107 C.3     1  UNL1        0.0188
     26 C         145.0141  141.9363  162.4254 C.3     1  UNL1        0.0188
     27 C         144.6729  143.1923  161.6796 C.3     1  UNL1        0.0723
     28 N         143.4382  143.9651  162.0376 N.3     1  UNL1       -0.2685
     29 C         142.3015  144.0562  161.0631 C.3     1  UNL1        0.1046
     30 C         141.0668  144.8291  161.4211 C.3     1  UNL1        0.1595
     31 O         140.9687  145.5108  162.7536 O.3     1  UNL1       -0.3508
     32 C         142.1054  145.4198  163.7281 C.3     1  UNL1        0.1595
     33 C         143.3401  144.6469  163.3702 C.3     1  UNL1        0.1046
@<TRIPOS>BOND
     1    13    14   ar
     2    14    15   ar
     3    15    16   ar
     4    16    17   ar
     5    17    18   ar
     6    17    19    1
     7    19    20    1
     8    20    21    1
     9    21    12    1
    10    12     1    1
    11     1    24    1
    12    24    25    1
    13    25    26    1
    14    26    27    1
    15    27    28    1
    16    28    29    1
    17    29    30    1
    18    30    31    1
    19    31    32    1
    20    32    33    1
    21     2     1    1
    22     2     3    1
    23     3     4    1
    24     4     5    1
    25     5     6    1
    26     6     7   ar
    27     7     8   ar
    28     8     9   ar
    29     9    10   ar
    30    10    11   ar
    31    21    22    1
    32    18    13   ar
    33    33    28    1
    34    11     2    1
    35    22    16    1
    36    11     6   ar
    37    20    23    1
@<TRIPOS>MOLECULE
*****
 33 37 0 0 0
SMALL
GASTEIGER

@<TRIPOS>ATOM
      1 N         139.4724  140.2976  163.5524 N.3     1  UNL1       -0.2679
      2 C         140.7132  139.5764  163.1163 C.3     1  UNL1        0.0978
      3 C         140.6048  138.3335  162.2836 C.3     1  UNL1        0.0224
      4 C         141.8458  137.6124  161.8474 C.3     1  UNL1        0.0065
      5 C         143.1950  138.1342  162.2440 C.3     1  UNL1        0.0277
      6 C         143.3033  139.3771  163.0767 C.ar    1  UNL1       -0.0073
      7 C         144.6525  139.8989  163.4733 C.ar    1  UNL1       -0.0015
      8 C         144.7609  141.1418  164.3060 C.ar    1  UNL1        0.0203
      9 C         143.5201  141.8630  164.7421 C.ar    1  UNL1        0.0985
     10 N         142.1709  141.3412  164.3456 N.ar    1  UNL1       -0.2471
     11 C         142.0625  140.0982  163.5128 C.ar    1  UNL1        0.0695
     12 C         138.8645  140.0019  164.8915 C.3     1  UNL1        0.0886
     13 C         141.0710  141.8938  171.1207 C.ar    1  UNL1        0.0204
     14 C         140.5608  140.4849  171.1875 C.ar    1  UNL1        0.0984
     15 N         140.0175  139.8247  169.9550 N.ar    1  UNL1       -0.2484
     16 C         139.9843  140.5735  168.6558 C.ar    1  UNL1        0.0577
     17 C         140.4945  141.9824  168.5889 C.ar    1  UNL1        0.0073
     18 C         141.0378  142.6426  169.8214 C.ar    1  UNL1       -0.0002
     19 C         140.4614  142.7313  167.2896 C.3     1  UNL1        0.0968
     20 N         139.9180  142.0711  166.0571 N.3     1  UNL1       -0.2934
     21 C         139.4079  140.6621  166.1240 C.3     1  UNL1        0.0764
     22 C         139.4410  139.9133  167.4233 C.3     1  UNL1        0.0626
     23 H         140.6661  142.0808  165.3638 H       1  UNL1        0.1236
     24 C         138.8393  141.3144  162.6495 C.3     1  UNL1        0.0725
     25 C         137.5979  142.0349  163.0852 C.3     1  UNL1        0.0188
     26 C         137.7026  143.3797  163.7414 C.3     1  UNL1        0.0188
     27 C         138.2035  144.5583  162.9604 C.3     1  UNL1        0.0723
     28 N         139.6560  144.6559  162.5989 N.3     1  UNL1       -0.2685
     29 C         140.6828  144.8718  163.6708 C.3     1  UNL1        0.1046
     30 C         142.1354  144.9694  163.3093 C.3     1  UNL1        0.1595
     31 O         142.5610  144.8511  161.8758 O.3     1  UNL1       -0.3508
     32 C         141.5342  144.6353  160.8038 C.3     1  UNL1        0.1595
     33 C         140.0817  144.5377  161.1654 C.3     1  UNL1        0.1046
@<TRIPOS>BOND
     1    13    14   ar
     2    14    15   ar
     3    15    16   ar
     4    16    17   ar
     5    17    18   ar
     6    17    19    1
     7    19    20    1
     8    20    21    1
     9    21    12    1
    10    12     1    1
    11     1    24    1
    12    24    25    1
    13    25    26    1
    14    26    27    1
    15    27    28    1
    16    28    29    1
    17    29    30    1
    18    30    31    1
    19    31    32    1
    20    32    33    1
    21     2     1    1
    22     2     3    1
    23     3     4    1
    24     4     5    1
    25     5     6    1
    26     6     7   ar
    27     7     8   ar
    28     8     9   ar
    29     9    10   ar
    30    10    11   ar
    31    21    22    1
    32    18    13   ar
    33    33    28    1
    34    11     2    1
    35    22    16    1
    36    11     6   ar
    37    20    23    1
@<TRIPOS>MOLECULE
*****
 33 37 0 0 0
SMALL
GASTEIGER

@<TRIPOS>ATOM
      1 N         142.9376  142.1488  163.1137 N.3     1  UNL1       -0.2679
      2 C         141.8120  143.1397  163.0800 C.3     1  UNL1        0.0978
      3 C         142.0472  144.5241  162.5524 C.3     1  UNL1        0.0224
      4 C         140.9216  145.5150  162.5186 C.3     1  UNL1        0.0065
      5 C         139.5609  145.1217  163.0124 C.3     1  UNL1        0.0277
      6 C         139.3258  143.7373  163.5400 C.ar    1  UNL1       -0.0073
      7 C         137.9652  143.3439  164.0338 C.ar    1  UNL1       -0.0015
      8 C         137.7300  141.9596  164.5613 C.ar    1  UNL1        0.0203
      9 C         138.8556  140.9686  164.5951 C.ar    1  UNL1        0.0985
     10 N         140.2162  141.3620  164.1013 N.ar    1  UNL1       -0.2471
     11 C         140.4513  142.7464  163.5738 C.ar    1  UNL1        0.0695
     12 C         143.8780  142.1214  164.2821 C.3     1  UNL1        0.0886
     13 C         141.9967  140.7886  170.7577 C.ar    1  UNL1        0.0204
     14 C         142.3948  142.2307  170.6490 C.ar    1  UNL1        0.0984
     15 N         142.8507  142.7857  169.3321 N.ar    1  UNL1       -0.2484
     16 C         142.9085  141.8986  168.1240 C.ar    1  UNL1        0.0577
     17 C         142.5104  140.4565  168.2327 C.ar    1  UNL1        0.0073
     18 C         142.0545  139.9015  169.5496 C.ar    1  UNL1       -0.0002
     19 C         142.5682  139.5693  167.0245 C.3     1  UNL1        0.0968
     20 N         143.0240  140.1243  165.7076 N.3     1  UNL1       -0.2934
     21 C         143.4221  141.5664  165.5989 C.3     1  UNL1        0.0764
     22 C         143.3643  142.4535  166.8071 C.3     1  UNL1        0.0626
     23 H         142.2608  139.9788  165.0467 H       1  UNL1        0.1236
     24 C         143.1227  141.1851  161.9792 C.3     1  UNL1        0.0725
     25 C         144.2017  140.1454  162.0469 C.3     1  UNL1        0.0188
     26 C         143.8552  138.7258  162.3858 C.3     1  UNL1        0.0188
     27 C         142.6882  138.0591  161.7197 C.3     1  UNL1        0.0723
     28 N         141.3950  137.8941  162.4615 N.3     1  UNL1       -0.2685
     29 C         140.0902  138.0507  161.7384 C.3     1  UNL1        0.1046
     30 C         138.7970  137.8857  162.4802 C.3     1  UNL1        0.1595
     31 O         138.8085  137.5641  163.9453 O.3     1  UNL1       -0.3508
     32 C         140.1134  137.4075  164.6685 C.3     1  UNL1        0.1595
     33 C         141.4066  137.5725  163.9267 C.3     1  UNL1        0.1046
@<TRIPOS>BOND
     1    13    14   ar
     2    14    15   ar
     3    15    16   ar
     4    16    17   ar
     5    17    18   ar
     6    17    19    1
     7    19    20    1
     8    20    21    1
     9    21    12    1
    10    12     1    1
    11     1    24    1
    12    24    25    1
    13    25    26    1
    14    26    27    1
    15    27    28    1
    16    28    29    1
    17    29    30    1
    18    30    31    1
    19    31    32    1
    20    32    33    1
    21     2     1    1
    22     2     3    1
    23     3     4    1
    24     4     5    1
    25     5     6    1
    26     6     7   ar
    27     7     8   ar
    28     8     9   ar
    29     9    10   ar
    30    10    11   ar
    31    21    22    1
    32    18    13   ar
    33    33    28    1
    34    11     2    1
    35    22    16    1
    36    11     6   ar
    37    20    23    1
@<TRIPOS>MOLECULE
*****
 33 37 0 0 0
SMALL
GASTEIGER

@<TRIPOS>ATOM
      1 N         143.5332  139.8183  163.4269 N.3     1  UNL1       -0.2679
      2 C         143.5110  141.2729  163.7925 C.3     1  UNL1        0.0978
      3 C         144.7149  141.9056  164.4252 C.3     1  UNL1        0.0224
      4 C         144.6927  143.3603  164.7908 C.3     1  UNL1        0.0065
      5 C         143.4667  144.1821  164.5237 C.3     1  UNL1        0.0277
      6 C         142.2628  143.5494  163.8910 C.ar    1  UNL1       -0.0073
      7 C         141.0368  144.3712  163.6239 C.ar    1  UNL1       -0.0015
      8 C         139.8329  143.7384  162.9912 C.ar    1  UNL1        0.0203
      9 C         139.8550  142.2838  162.6256 C.ar    1  UNL1        0.0985
     10 N         141.0811  141.4620  162.8927 N.ar    1  UNL1       -0.2471
     11 C         142.2850  142.0948  163.5254 C.ar    1  UNL1        0.0695
     12 C         143.1083  138.7865  164.4293 C.3     1  UNL1        0.0886
     13 C         140.0032  140.5153  170.3131 C.ar    1  UNL1        0.0204
     14 C         141.4715  140.3414  170.5655 C.ar    1  UNL1        0.0984
     15 N         142.3862  139.9608  169.4392 N.ar    1  UNL1       -0.2484
     16 C         141.8326  139.7542  168.0606 C.ar    1  UNL1        0.0577
     17 C         140.3642  139.9281  167.8082 C.ar    1  UNL1        0.0073
     18 C         139.4496  140.3087  168.9345 C.ar    1  UNL1       -0.0002
     19 C         139.8105  139.7215  166.4295 C.3     1  UNL1        0.0968
     20 N         140.7252  139.3409  165.3032 N.3     1  UNL1       -0.2934
     21 C         142.1936  139.1670  165.5556 C.3     1  UNL1        0.0764
     22 C         142.7472  139.3737  166.9343 C.3     1  UNL1        0.0626
     23 H         140.6326  140.0653  164.5911 H       1  UNL1        0.1236
     24 C         143.9803  139.3955  162.0589 C.3     1  UNL1        0.0725
     25 C         143.7733  137.9806  161.6062 C.3     1  UNL1        0.0188
     26 C         142.7243  137.6670  160.5808 C.3     1  UNL1        0.0188
     27 C         141.7360  138.7192  160.1730 C.3     1  UNL1        0.0723
     28 N         140.3570  138.7219  160.7632 N.3     1  UNL1       -0.2685
     29 C         139.2635  139.5147  160.1108 C.3     1  UNL1        0.1046
     30 C         137.8846  139.5174  160.7010 C.3     1  UNL1        0.1595
     31 O         137.5990  138.7273  161.9436 O.3     1  UNL1       -0.3508
     32 C         138.6925  137.9344  162.5961 C.3     1  UNL1        0.1595
     33 C         140.0715  137.9317  162.0059 C.3     1  UNL1        0.1046
@<TRIPOS>BOND
     1    13    14   ar
     2    14    15   ar
     3    15    16   ar
     4    16    17   ar
     5    17    18   ar
     6    17    19    1
     7    19    20    1
     8    20    21    1
     9    21    12    1
    10    12     1    1
    11     1    24    1
    12    24    25    1
    13    25    26    1
    14    26    27    1
    15    27    28    1
    16    28    29    1
    17    29    30    1
    18    30    31    1
    19    31    32    1
    20    32    33    1
    21     2     1    1
    22     2     3    1
    23     3     4    1
    24     4     5    1
    25     5     6    1
    26     6     7   ar
    27     7     8   ar
    28     8     9   ar
    29     9    10   ar
    30    10    11   ar
    31    21    22    1
    32    18    13   ar
    33    33    28    1
    34    11     2    1
    35    22    16    1
    36    11     6   ar
    37    20    23    1
@<TRIPOS>MOLECULE
*****
 33 37 0 0 0
SMALL
GASTEIGER

@<TRIPOS>ATOM
      1 N         140.0807  142.2054  163.3703 N.3     1  UNL1       -0.2679
      2 C         141.3607  142.9805  163.4739 C.3     1  UNL1        0.0978
      3 C         141.3269  144.4787  163.5413 C.3     1  UNL1        0.0224
      4 C         142.6070  145.2538  163.6450 C.3     1  UNL1        0.0065
      5 C         143.9208  144.5308  163.6813 C.3     1  UNL1        0.0277
      6 C         143.9545  143.0327  163.6139 C.ar    1  UNL1       -0.0073
      7 C         145.2682  142.3097  163.6502 C.ar    1  UNL1       -0.0015
      8 C         145.3020  140.8116  163.5828 C.ar    1  UNL1        0.0203
      9 C         144.0220  140.0365  163.4792 C.ar    1  UNL1        0.0985
     10 N         142.7083  140.7595  163.4429 N.ar    1  UNL1       -0.2471
     11 C         142.6745  142.2576  163.5102 C.ar    1  UNL1        0.0695
     12 C         139.4188  141.6812  164.6101 C.3     1  UNL1        0.0886
     13 C         142.8376  141.2909  170.5607 C.ar    1  UNL1        0.0204
     14 C         142.1236  142.6081  170.4901 C.ar    1  UNL1        0.0984
     15 N         141.2971  142.9496  169.2859 N.ar    1  UNL1       -0.2484
     16 C         141.1845  141.9739  168.1522 C.ar    1  UNL1        0.0577
     17 C         141.8985  140.6567  168.2228 C.ar    1  UNL1        0.0073
     18 C         142.7251  140.3151  169.4270 C.ar    1  UNL1       -0.0002
     19 C         141.7860  139.6808  167.0891 C.3     1  UNL1        0.0968
     20 N         140.9594  140.0223  165.8849 N.3     1  UNL1       -0.2934
     21 C         140.2454  141.3397  165.8143 C.3     1  UNL1        0.0764
     22 C         140.3580  142.3154  166.9480 C.3     1  UNL1        0.0626
     23 H         140.2475  139.2967  165.8009 H       1  UNL1        0.1236
     24 C         139.4626  141.9545  162.0268 C.3     1  UNL1        0.0725
     25 C         140.1698  141.0903  161.0254 C.3     1  UNL1        0.0188
     26 C         139.4107  140.0359  160.2757 C.3     1  UNL1        0.0188
     27 C         139.6377  138.5857  160.5850 C.3     1  UNL1        0.0723
     28 N         139.8118  138.1403  162.0067 N.3     1  UNL1       -0.2685
     29 C         138.6631  138.2305  162.9670 C.3     1  UNL1        0.1046
     30 C         138.8373  137.7851  164.3887 C.3     1  UNL1        0.1595
     31 O         140.1602  137.2496  164.8502 O.3     1  UNL1       -0.3508
     32 C         141.3091  137.1595  163.8899 C.3     1  UNL1        0.1595
     33 C         141.1349  137.6048  162.4681 C.3     1  UNL1        0.1046
@<TRIPOS>BOND
     1    13    14   ar
     2    14    15   ar
     3    15    16   ar
     4    16    17   ar
     5    17    18   ar
     6    17    19    1
     7    19    20    1
     8    20    21    1
     9    21    12    1
    10    12     1    1
    11     1    24    1
    12    24    25    1
    13    25    26    1
    14    26    27    1
    15    27    28    1
    16    28    29    1
    17    29    30    1
    18    30    31    1
    19    31    32    1
    20    32    33    1
    21     2     1    1
    22     2     3    1
    23     3     4    1
    24     4     5    1
    25     5     6    1
    26     6     7   ar
    27     7     8   ar
    28     8     9   ar
    29     9    10   ar
    30    10    11   ar
    31    21    22    1
    32    18    13   ar
    33    33    28    1
    34    11     2    1
    35    22    16    1
    36    11     6   ar
    37    20    23    1
@<TRIPOS>MOLECULE
*****
 33 37 0 0 0
SMALL
GASTEIGER

@<TRIPOS>ATOM
      1 N         143.0519  138.9667  163.6300 N.3     1  UNL1       -0.2679
      2 C         143.5383  140.3737  163.8129 C.3     1  UNL1        0.0978
      3 C         145.0077  140.6495  163.9343 C.3     1  UNL1        0.0224
      4 C         145.4941  142.0567  164.1172 C.3     1  UNL1        0.0065
      5 C         144.5110  143.1880  164.1787 C.3     1  UNL1        0.0277
      6 C         143.0416  142.9122  164.0573 C.ar    1  UNL1       -0.0073
      7 C         142.0586  144.0435  164.1188 C.ar    1  UNL1       -0.0015
      8 C         140.5892  143.7677  163.9974 C.ar    1  UNL1        0.0203
      9 C         140.1028  142.3606  163.8145 C.ar    1  UNL1        0.0985
     10 N         141.0858  141.2293  163.7530 N.ar    1  UNL1       -0.2471
     11 C         142.5552  141.5051  163.8744 C.ar    1  UNL1        0.0695
     12 C         142.6442  138.1530  164.8225 C.3     1  UNL1        0.0886
     13 C         140.8670  141.1053  170.7702 C.ar    1  UNL1        0.0204
     14 C         142.3156  140.7204  170.8267 C.ar    1  UNL1        0.0984
     15 N         142.9608  140.0529  169.6485 N.ar    1  UNL1       -0.2484
     16 C         142.1573  139.7704  168.4137 C.ar    1  UNL1        0.0577
     17 C         140.7087  140.1554  168.3572 C.ar    1  UNL1        0.0073
     18 C         140.0635  140.8229  169.5355 C.ar    1  UNL1       -0.0002
     19 C         139.9052  139.8729  167.1225 C.3     1  UNL1        0.0968
     20 N         140.5503  139.2055  165.9442 N.3     1  UNL1       -0.2934
     21 C         141.9991  138.8205  166.0008 C.3     1  UNL1        0.0764
     22 C         142.8025  139.1030  167.2355 C.3     1  UNL1        0.0626
     23 H         140.4449  139.8397  165.1523 H       1  UNL1        0.1236
     24 C         142.9731  138.3731  162.2547 C.3     1  UNL1        0.0725
     25 C         141.6408  138.0064  161.6713 C.3     1  UNL1        0.0188
     26 C         140.8362  139.0352  160.9337 C.3     1  UNL1        0.0188
     27 C         141.4615  139.8166  159.8163 C.3     1  UNL1        0.0723
     28 N         142.0327  141.1781  160.0813 N.3     1  UNL1       -0.2685
     29 C         141.1203  142.3611  160.2156 C.3     1  UNL1        0.1046
     30 C         141.6915  143.7225  160.4806 C.3     1  UNL1        0.1595
     31 O         143.1750  143.9010  160.6112 O.3     1  UNL1       -0.3508
     32 C         144.0875  142.7180  160.4769 C.3     1  UNL1        0.1595
     33 C         143.5164  141.3565  160.2119 C.3     1  UNL1        0.1046
@<TRIPOS>BOND
     1    13    14   ar
     2    14    15   ar
     3    15    16   ar
     4    16    17   ar
     5    17    18   ar
     6    17    19    1
     7    19    20    1
     8    20    21    1
     9    21    12    1
    10    12     1    1
    11     1    24    1
    12    24    25    1
    13    25    26    1
    14    26    27    1
    15    27    28    1
    16    28    29    1
    17    29    30    1
    18    30    31    1
    19    31    32    1
    20    32    33    1
    21     2     1    1
    22     2     3    1
    23     3     4    1
    24     4     5    1
    25     5     6    1
    26     6     7   ar
    27     7     8   ar
    28     8     9   ar
    29     9    10   ar
    30    10    11   ar
    31    21    22    1
    32    18    13   ar
    33    33    28    1
    34    11     2    1
    35    22    16    1
    36    11     6   ar
    37    20    23    1
@<TRIPOS>MOLECULE
*****
 33 37 0 0 0
SMALL
GASTEIGER

@<TRIPOS>ATOM
      1 N         141.0412  139.6843  163.5487 N.3     1  UNL1       -0.2679
      2 C         139.9511  140.5884  163.0546 C.3     1  UNL1        0.0978
      3 C         139.1830  140.2303  161.8169 C.3     1  UNL1        0.0224
      4 C         138.0929  141.1345  161.3228 C.3     1  UNL1        0.0065
      5 C         137.7708  142.3968  162.0664 C.3     1  UNL1        0.0277
      6 C         138.5389  142.7549  163.3041 C.ar    1  UNL1       -0.0073
      7 C         138.2168  144.0171  164.0476 C.ar    1  UNL1       -0.0015
      8 C         138.9849  144.3753  165.2853 C.ar    1  UNL1        0.0203
      9 C         140.0750  143.4711  165.7794 C.ar    1  UNL1        0.0985
     10 N         140.3970  142.2089  165.0359 N.ar    1  UNL1       -0.2471
     11 C         139.6290  141.8508  163.7982 C.ar    1  UNL1        0.0695
     12 C         140.7607  138.7023  164.6475 C.3     1  UNL1        0.0886
     13 C         141.4840  140.7785  171.1603 C.ar    1  UNL1        0.0204
     14 C         142.8371  140.4756  170.5883 C.ar    1  UNL1        0.0984
     15 N         142.9631  139.9998  169.1714 N.ar    1  UNL1       -0.2484
     16 C         141.7359  139.8269  168.3264 C.ar    1  UNL1        0.0577
     17 C         140.3828  140.1298  168.8983 C.ar    1  UNL1        0.0073
     18 C         140.2568  140.6056  170.3153 C.ar    1  UNL1       -0.0002
     19 C         139.1555  139.9569  168.0533 C.3     1  UNL1        0.0968
     20 N         139.2815  139.4811  166.6363 N.3     1  UNL1       -0.2934
     21 C         140.6348  139.1782  166.0644 C.3     1  UNL1        0.0764
     22 C         141.8619  139.3511  166.9094 C.3     1  UNL1        0.0626
     23 H         138.8669  140.2019  166.0457 H       1  UNL1        0.1236
     24 C         142.4117  139.7620  162.9441 C.3     1  UNL1        0.0725
     25 C         143.5316  138.9449  163.5169 C.3     1  UNL1        0.0188
     26 C         144.4773  139.5581  164.5067 C.3     1  UNL1        0.0188
     27 C         145.4452  140.6150  164.0637 C.3     1  UNL1        0.0723
     28 N         144.9372  141.9317  163.5556 N.3     1  UNL1       -0.2685
     29 C         144.9201  142.2107  162.0819 C.3     1  UNL1        0.1046
     30 C         144.4120  143.5274  161.5737 C.3     1  UNL1        0.1595
     31 O         143.9211  144.5651  162.5392 O.3     1  UNL1       -0.3508
     32 C         143.9382  144.2861  164.0130 C.3     1  UNL1        0.1595
     33 C         144.4463  142.9694  164.5212 C.3     1  UNL1        0.1046
@<TRIPOS>BOND
     1    13    14   ar
     2    14    15   ar
     3    15    16   ar
     4    16    17   ar
     5    17    18   ar
     6    17    19    1
     7    19    20    1
     8    20    21    1
     9    21    12    1
    10    12     1    1
    11     1    24    1
    12    24    25    1
    13    25    26    1
    14    26    27    1
    15    27    28    1
    16    28    29    1
    17    29    30    1
    18    30    31    1
    19    31    32    1
    20    32    33    1
    21     2     1    1
    22     2     3    1
    23     3     4    1
    24     4     5    1
    25     5     6    1
    26     6     7   ar
    27     7     8   ar
    28     8     9   ar
    29     9    10   ar
    30    10    11   ar
    31    21    22    1
    32    18    13   ar
    33    33    28    1
    34    11     2    1
    35    22    16    1
    36    11     6   ar
    37    20    23    1
