@<TRIPOS>MOLECULE
*****
 42 45 0 0 0
SMALL
GASTEIGER

@<TRIPOS>ATOM
      1 C         142.2429  140.0535  166.8975 C.ar    1  UNL1        0.1217
      2 C         142.3456  138.8150  166.0576 C.ar    1  UNL1        0.0196
      3 C         141.9929  138.8655  164.6005 C.ar    1  UNL1       -0.0011
      4 C         141.5376  140.1545  163.9833 C.ar    1  UNL1        0.0022
      5 C         141.4349  141.3931  164.8232 C.ar    1  UNL1       -0.0029
      6 C         141.7876  141.3425  166.2803 C.ar    1  UNL1        0.0170
      7 C         140.9595  142.5114  163.9438 C.3     1  UNL1        0.1207
      8 N         140.7683  141.9640  162.5604 N.am    1  UNL1       -0.2635
      9 C         140.3018  142.7374  161.3628 C.2     1  UNL1        0.2537
     10 O         140.1575  142.0515  160.0367 O.2     1  UNL1       -0.2722
     11 C         141.1256  140.5074  162.5849 C.3     1  UNL1        0.1751
     12 C         139.9796  144.1968  161.4914 C.3     1  UNL1        0.1935
     13 C         140.6628  145.4725  161.0966 C.3     1  UNL1        0.0711
     14 C         139.5240  146.2606  161.6732 C.3     1  UNL1        0.1457
     15 O         138.8410  144.9848  162.0678 O.3     1  UNL1       -0.3469
     16 C         141.0791  139.5684  161.4160 C.2     1  UNL1        0.2485
     17 O         140.1176  138.4172  161.4166 O.2     1  UNL1       -0.2726
     18 N         141.9941  139.7807  160.2465 N.am    1  UNL1       -0.2823
     19 H         142.6252  140.5364  160.2461 H       1  UNL1        0.1549
     20 C         141.9476  138.8418  159.0777 C.ar    1  UNL1        0.0503
     21 C         141.0219  139.1180  157.9302 C.ar    1  UNL1        0.0144
     22 C         140.9754  138.1790  156.7613 C.ar    1  UNL1       -0.0002
     23 C         141.8545  136.9639  156.7400 C.ar    1  UNL1        0.0182
     24 C         142.7802  136.6877  157.8875 C.ar    1  UNL1       -0.0002
     25 C         142.8267  137.6266  159.0563 C.ar    1  UNL1        0.0144
     26 C         141.8080  136.0249  155.5711 C.3     1  UNL1        0.2827
     27 O         140.3261  135.8762  155.7495 O.3     1  UNL1       -0.3692
     28 H         140.0350  136.4167  156.5006 H       1  UNL1        0.2112
     29 C         141.7615  135.0860  154.4023 C.3     1  UNL1        0.4311
     30 F         141.7150  134.1470  153.2335 F       1  UNL1       -0.1669
     31 F         141.2698  133.9908  155.3016 F       1  UNL1       -0.1669
     32 F         142.0463  135.6603  153.7911 F       1  UNL1       -0.1669
     33 C         143.2899  136.1736  155.3927 C.3     1  UNL1        0.4311
     34 F         144.7718  136.3222  155.2143 F       1  UNL1       -0.1669
     35 F         143.2829  137.0198  155.1311 F       1  UNL1       -0.1669
     36 F         143.8368  134.8264  155.7613 F       1  UNL1       -0.1669
     37 S         142.5956  140.0030  168.3546 S.O2    1  UNL1        0.0603
     38 O         141.9355  141.3341  168.5605 O.2     1  UNL1       -0.1530
     39 O         143.2557  138.6719  168.1486 O.2     1  UNL1       -0.1530
     40 C         142.0809  140.6490  170.8178 C.3     1  UNL1        0.1102
     41 N         142.9483  139.9525  169.8116 N.3     1  UNL1       -0.1779
     42 H         142.9718  138.9673  170.0749 H       1  UNL1        0.1488
@<TRIPOS>BOND
     1    40    41    1
     2    41    37    1
     3    37    38    2
     4    37    39    2
     5    37     1    1
     6     1     2   ar
     7     2     3   ar
     8     3     4   ar
     9     4     5   ar
    10     5     6   ar
    11     5     7    1
    12     7     8    1
    13     8     9   am
    14     9    10    2
    15     9    12    1
    16    12    13    1
    17    13    14    1
    18    14    15    1
    19     8    11    1
    20    11    16    1
    21    16    17    2
    22    16    18   am
    23    18    20    1
    24    20    21   ar
    25    21    22   ar
    26    22    23   ar
    27    23    26    1
    28    26    27    1
    29    26    29    1
    30    29    30    1
    31    29    31    1
    32    29    32    1
    33    26    33    1
    34    33    34    1
    35    33    35    1
    36    33    36    1
    37    23    24   ar
    38    24    25   ar
    39     6     1   ar
    40    15    12    1
    41    25    20   ar
    42    11     4    1
    43    41    42    1
    44    18    19    1
    45    27    28    1
@<TRIPOS>MOLECULE
*****
 42 45 0 0 0
SMALL
GASTEIGER

@<TRIPOS>ATOM
      1 C         147.1506  141.6390  155.2935 C.ar    1  UNL1        0.1217
      2 C         146.8536  142.5459  156.4509 C.ar    1  UNL1        0.0196
      3 C         145.6887  142.2567  157.3505 C.ar    1  UNL1       -0.0011
      4 C         144.8208  141.0608  157.0929 C.ar    1  UNL1        0.0022
      5 C         145.1178  140.1540  155.9356 C.ar    1  UNL1       -0.0029
      6 C         146.2827  140.4431  155.0359 C.ar    1  UNL1        0.0170
      7 C         144.0933  139.0582  155.9304 C.3     1  UNL1        0.1207
      8 N         143.1632  139.2879  157.0846 N.am    1  UNL1       -0.2635
      9 C         141.9895  138.4305  157.4553 C.2     1  UNL1        0.2537
     10 O         141.1455  138.7871  158.6429 O.2     1  UNL1       -0.2722
     11 C         143.6128  140.5256  157.8030 C.3     1  UNL1        0.1751
     12 C         141.6599  137.2164  156.6384 C.3     1  UNL1        0.1935
     13 C         140.5811  136.8572  155.6601 C.3     1  UNL1        0.0711
     14 C         141.1937  135.4995  155.4830 C.3     1  UNL1        0.1457
     15 O         142.2725  135.8588  156.4614 O.3     1  UNL1       -0.3469
     16 C         142.9677  141.1231  159.0182 C.2     1  UNL1        0.2485
     17 O         143.6562  141.0439  160.3485 O.2     1  UNL1       -0.2726
     18 N         141.6339  141.7998  158.9032 N.am    1  UNL1       -0.2823
     19 H         141.1820  141.8518  158.0302 H       1  UNL1        0.1549
     20 C         140.9888  142.3973  160.1185 C.ar    1  UNL1        0.0503
     21 C         140.3708  141.5059  161.1545 C.ar    1  UNL1        0.0144
     22 C         139.7257  142.1034  162.3697 C.ar    1  UNL1       -0.0002
     23 C         139.6985  143.5923  162.5490 C.ar    1  UNL1        0.0182
     24 C         140.3165  144.4838  161.5130 C.ar    1  UNL1       -0.0002
     25 C         140.9617  143.8863  160.2977 C.ar    1  UNL1        0.0144
     26 C         139.0534  144.1899  163.7642 C.3     1  UNL1        0.2827
     27 O         137.9035  144.6590  162.9231 O.3     1  UNL1       -0.3692
     28 H         138.0489  144.3958  162.0009 H       1  UNL1        0.2112
     29 C         138.4083  144.7874  164.9794 C.3     1  UNL1        0.4311
     30 F         137.7632  145.3849  166.1947 F       1  UNL1       -0.1669
     31 F         137.2769  143.8098  164.8595 F       1  UNL1       -0.1669
     32 F         139.0250  145.4033  165.1372 F       1  UNL1       -0.1669
     33 C         140.2034  143.7207  164.6053 C.3     1  UNL1        0.4311
     34 F         141.3533  143.2516  165.4465 F       1  UNL1       -0.1669
     35 F         139.7836  143.0451  164.9950 F       1  UNL1       -0.1669
     36 F         141.3136  144.6698  164.2641 F       1  UNL1       -0.1669
     37 S         148.3155  141.9281  154.3939 S.O2    1  UNL1        0.0603
     38 O         149.2478  141.8091  155.5629 O.2     1  UNL1       -0.1530
     39 O         147.3831  142.0472  153.2249 O.2     1  UNL1       -0.1530
     40 C         149.7228  143.6150  153.0068 C.3     1  UNL1        0.1102
     41 N         149.4804  142.2173  153.4942 N.3     1  UNL1       -0.1779
     42 H         150.3198  141.9315  153.9983 H       1  UNL1        0.1488
@<TRIPOS>BOND
     1    40    41    1
     2    41    37    1
     3    37    38    2
     4    37    39    2
     5    37     1    1
     6     1     2   ar
     7     2     3   ar
     8     3     4   ar
     9     4     5   ar
    10     5     6   ar
    11     5     7    1
    12     7     8    1
    13     8     9   am
    14     9    10    2
    15     9    12    1
    16    12    13    1
    17    13    14    1
    18    14    15    1
    19     8    11    1
    20    11    16    1
    21    16    17    2
    22    16    18   am
    23    18    20    1
    24    20    21   ar
    25    21    22   ar
    26    22    23   ar
    27    23    26    1
    28    26    27    1
    29    26    29    1
    30    29    30    1
    31    29    31    1
    32    29    32    1
    33    26    33    1
    34    33    34    1
    35    33    35    1
    36    33    36    1
    37    23    24   ar
    38    24    25   ar
    39     6     1   ar
    40    15    12    1
    41    25    20   ar
    42    11     4    1
    43    41    42    1
    44    18    19    1
    45    27    28    1
@<TRIPOS>MOLECULE
*****
 42 45 0 0 0
SMALL
GASTEIGER

@<TRIPOS>ATOM
      1 C         142.8785  137.6063  157.0012 C.ar    1  UNL1        0.1217
      2 C         142.8810  137.0677  158.4011 C.ar    1  UNL1        0.0196
      3 C         142.5957  137.9807  159.5566 C.ar    1  UNL1       -0.0011
      4 C         142.3080  139.4324  159.3121 C.ar    1  UNL1        0.0022
      5 C         142.3056  139.9710  157.9122 C.ar    1  UNL1       -0.0029
      6 C         142.5908  139.0580  156.7567 C.ar    1  UNL1        0.0170
      7 C         141.9902  141.4360  157.9797 C.3     1  UNL1        0.1207
      8 N         141.7977  141.8027  159.4214 N.am    1  UNL1       -0.2635
      9 C         141.4669  143.1680  159.9474 C.2     1  UNL1        0.2537
     10 O         141.3036  143.3841  161.4227 O.2     1  UNL1       -0.2722
     11 C         141.9941  140.5644  160.2448 C.3     1  UNL1        0.1751
     12 C         141.2993  144.3171  158.9979 C.3     1  UNL1        0.1935
     13 C         140.2274  144.7590  158.0463 C.3     1  UNL1        0.0711
     14 C         141.0624  145.9423  157.6553 C.3     1  UNL1        0.1457
     15 O         142.1343  145.5003  158.6070 O.3     1  UNL1       -0.3469
     16 C         141.8942  140.4739  161.7388 C.2     1  UNL1        0.2485
     17 O         143.1364  140.3222  162.5657 O.2     1  UNL1       -0.2726
     18 N         140.5521  140.5352  162.4058 N.am    1  UNL1       -0.2823
     19 H         139.7368  140.6348  161.8631 H       1  UNL1        0.1549
     20 C         140.4522  140.4448  163.8997 C.ar    1  UNL1        0.0503
     21 C         140.5025  139.1064  164.5751 C.ar    1  UNL1        0.0144
     22 C         140.4027  139.0159  166.0690 C.ar    1  UNL1       -0.0002
     23 C         140.2524  140.2638  166.8876 C.ar    1  UNL1        0.0182
     24 C         140.2021  141.6022  166.2122 C.ar    1  UNL1       -0.0002
     25 C         140.3020  141.6927  164.7183 C.ar    1  UNL1        0.0144
     26 C         140.1525  140.1734  168.3816 C.3     1  UNL1        0.2827
     27 O         138.8249  139.4875  168.2513 O.3     1  UNL1       -0.3692
     28 H         138.5997  139.3947  167.3123 H       1  UNL1        0.2112
     29 C         140.0526  140.0830  169.8755 C.3     1  UNL1        0.4311
     30 F         139.9527  139.9925  171.3694 F       1  UNL1       -0.1669
     31 F         138.8533  140.9834  169.8498 F       1  UNL1       -0.1669
     32 F         140.7484  139.5487  169.9981 F       1  UNL1       -0.1669
     33 C         141.4801  140.8593  168.5119 C.3     1  UNL1        0.4311
     34 F         142.8077  141.5453  168.6421 F       1  UNL1       -0.1669
     35 F         141.9760  140.1952  168.1995 F       1  UNL1       -0.1669
     36 F         141.1387  142.2066  169.0760 F       1  UNL1       -0.1669
     37 S         143.1638  136.6933  155.8458 S.O2    1  UNL1        0.0603
     38 O         144.5299  137.2969  155.7061 O.2     1  UNL1       -0.1530
     39 O         141.7977  136.0897  155.9855 O.2     1  UNL1       -0.1530
     40 C         142.3164  135.1642  153.9239 C.3     1  UNL1        0.1102
     41 N         143.4491  135.7803  154.6904 N.3     1  UNL1       -0.1779
     42 H         144.0006  136.3165  154.0205 H       1  UNL1        0.1488
@<TRIPOS>BOND
     1    40    41    1
     2    41    37    1
     3    37    38    2
     4    37    39    2
     5    37     1    1
     6     1     2   ar
     7     2     3   ar
     8     3     4   ar
     9     4     5   ar
    10     5     6   ar
    11     5     7    1
    12     7     8    1
    13     8     9   am
    14     9    10    2
    15     9    12    1
    16    12    13    1
    17    13    14    1
    18    14    15    1
    19     8    11    1
    20    11    16    1
    21    16    17    2
    22    16    18   am
    23    18    20    1
    24    20    21   ar
    25    21    22   ar
    26    22    23   ar
    27    23    26    1
    28    26    27    1
    29    26    29    1
    30    29    30    1
    31    29    31    1
    32    29    32    1
    33    26    33    1
    34    33    34    1
    35    33    35    1
    36    33    36    1
    37    23    24   ar
    38    24    25   ar
    39     6     1   ar
    40    15    12    1
    41    25    20   ar
    42    11     4    1
    43    41    42    1
    44    18    19    1
    45    27    28    1
@<TRIPOS>MOLECULE
*****
 42 45 0 0 0
SMALL
GASTEIGER

@<TRIPOS>ATOM
      1 C         140.5865  145.2213  157.4385 C.ar    1  UNL1        0.1217
      2 C         140.4877  145.5099  158.9072 C.ar    1  UNL1        0.0196
      3 C         140.6852  144.4060  159.9034 C.ar    1  UNL1       -0.0011
      4 C         140.9815  143.0136  159.4310 C.ar    1  UNL1        0.0022
      5 C         141.0803  142.7250  157.9624 C.ar    1  UNL1       -0.0029
      6 C         140.8828  143.8289  156.9661 C.ar    1  UNL1        0.0170
      7 C         141.3819  141.2650  157.7961 C.3     1  UNL1        0.1207
      8 N         141.4696  140.6513  159.1620 N.am    1  UNL1       -0.2635
      9 C         141.7547  139.2100  159.4644 C.2     1  UNL1        0.2537
     10 O         141.8116  138.7394  160.8875 O.2     1  UNL1       -0.2722
     11 C         141.2221  141.7320  160.1724 C.3     1  UNL1        0.1751
     12 C         141.9828  138.2394  158.3438 C.3     1  UNL1        0.1935
     13 C         141.1302  137.6550  157.2568 C.3     1  UNL1        0.0711
     14 C         142.3054  136.8668  156.7589 C.3     1  UNL1        0.1457
     15 O         143.1578  137.4513  157.8459 O.3     1  UNL1       -0.3469
     16 C         141.2162  141.5611  161.6626 C.2     1  UNL1        0.2485
     17 O         142.3797  142.0431  162.4774 O.2     1  UNL1       -0.2726
     18 N         140.0468  140.9083  162.3381 N.am    1  UNL1       -0.2823
     19 H         139.2831  140.5919  161.8033 H       1  UNL1        0.1549
     20 C         140.0409  140.7374  163.8283 C.ar    1  UNL1        0.0503
     21 C         140.3656  139.4029  164.4315 C.ar    1  UNL1        0.0144
     22 C         140.3597  139.2321  165.9217 C.ar    1  UNL1       -0.0002
     23 C         140.0292  140.3956  166.8088 C.ar    1  UNL1        0.0182
     24 C         139.7045  141.7300  166.2056 C.ar    1  UNL1       -0.0002
     25 C         139.7104  141.9009  164.7154 C.ar    1  UNL1        0.0144
     26 C         140.0233  140.2247  168.2990 C.3     1  UNL1        0.2827
     27 O         138.7657  139.4131  168.2010 O.3     1  UNL1       -0.3692
     28 H         138.4981  139.3424  167.2713 H       1  UNL1        0.2112
     29 C         140.0174  140.0538  169.7892 C.3     1  UNL1        0.4311
     30 F         140.0116  139.8830  171.2794 F       1  UNL1       -0.1669
     31 F         138.7769  140.8921  169.8805 F       1  UNL1       -0.1669
     32 F         140.7441  139.5502  169.8430 F       1  UNL1       -0.1669
     33 C         141.2810  141.0363  168.3970 C.3     1  UNL1        0.4311
     34 F         142.5386  141.8479  168.4950 F       1  UNL1       -0.1669
     35 F         141.8274  140.4308  168.0515 F       1  UNL1       -0.1669
     36 F         140.8305  142.3317  169.0044 F       1  UNL1       -0.1669
     37 S         140.3890  146.3252  156.4423 S.O2    1  UNL1        0.0603
     38 O         139.4544  147.0147  157.3916 O.2     1  UNL1       -0.1530
     39 O         141.3236  145.6357  155.4930 O.2     1  UNL1       -0.1530
     40 C         138.9062  148.2020  155.4281 C.3     1  UNL1        0.1102
     41 N         140.1915  147.4291  155.4461 N.3     1  UNL1       -0.1779
     42 H         140.9393  148.1048  155.6032 H       1  UNL1        0.1488
@<TRIPOS>BOND
     1    40    41    1
     2    41    37    1
     3    37    38    2
     4    37    39    2
     5    37     1    1
     6     1     2   ar
     7     2     3   ar
     8     3     4   ar
     9     4     5   ar
    10     5     6   ar
    11     5     7    1
    12     7     8    1
    13     8     9   am
    14     9    10    2
    15     9    12    1
    16    12    13    1
    17    13    14    1
    18    14    15    1
    19     8    11    1
    20    11    16    1
    21    16    17    2
    22    16    18   am
    23    18    20    1
    24    20    21   ar
    25    21    22   ar
    26    22    23   ar
    27    23    26    1
    28    26    27    1
    29    26    29    1
    30    29    30    1
    31    29    31    1
    32    29    32    1
    33    26    33    1
    34    33    34    1
    35    33    35    1
    36    33    36    1
    37    23    24   ar
    38    24    25   ar
    39     6     1   ar
    40    15    12    1
    41    25    20   ar
    42    11     4    1
    43    41    42    1
    44    18    19    1
    45    27    28    1
@<TRIPOS>MOLECULE
*****
 42 45 0 0 0
SMALL
GASTEIGER

@<TRIPOS>ATOM
      1 C         143.2978  132.6826  155.4038 C.ar    1  UNL1        0.1217
      2 C         144.1495  133.3011  156.4723 C.ar    1  UNL1        0.0196
      3 C         143.7923  134.6466  157.0311 C.ar    1  UNL1       -0.0011
      4 C         142.5833  135.3735  156.5212 C.ar    1  UNL1        0.0022
      5 C         141.7316  134.7549  155.4526 C.ar    1  UNL1       -0.0029
      6 C         142.0889  133.4095  154.8939 C.ar    1  UNL1        0.0170
      7 C         140.6083  135.7016  155.1492 C.3     1  UNL1        0.1207
      8 N         140.7659  136.9053  156.0303 N.am    1  UNL1       -0.2635
      9 C         139.8616  138.1018  156.0585 C.2     1  UNL1        0.2537
     10 O         140.1471  139.2357  156.9980 O.2     1  UNL1       -0.2722
     11 C         141.9865  136.7025  156.8782 C.3     1  UNL1        0.1751
     12 C         138.6718  138.1643  155.1472 C.3     1  UNL1        0.1935
     13 C         138.3262  138.9314  153.9053 C.3     1  UNL1        0.0711
     14 C         136.9892  138.2528  153.8584 C.3     1  UNL1        0.1457
     15 O         137.3350  137.4858  155.1002 O.3     1  UNL1       -0.3469
     16 C         142.5171  137.6605  157.9032 C.2     1  UNL1        0.2485
     17 O         143.6288  138.6018  157.5456 O.2     1  UNL1       -0.2726
     18 N         141.9360  137.6772  159.2860 N.am    1  UNL1       -0.2823
     19 H         141.2063  137.0594  159.5208 H       1  UNL1        0.1549
     20 C         142.4666  138.6352  160.3110 C.ar    1  UNL1        0.0503
     21 C         143.6546  138.2584  161.1458 C.ar    1  UNL1        0.0144
     22 C         144.1852  139.2164  162.1708 C.ar    1  UNL1       -0.0002
     23 C         143.5280  140.5512  162.3611 C.ar    1  UNL1        0.0182
     24 C         142.3400  140.9280  161.5264 C.ar    1  UNL1       -0.0002
     25 C         141.8094  139.9700  160.5014 C.ar    1  UNL1        0.0144
     26 C         144.0586  141.5091  163.3861 C.3     1  UNL1        0.2827
     27 O         144.3245  142.5165  162.3070 O.3     1  UNL1       -0.3692
     28 H         144.0583  142.1496  161.4495 H       1  UNL1        0.2112
     29 C         144.5892  142.4671  164.4111 C.3     1  UNL1        0.4311
     30 F         145.1198  143.4251  165.4362 F       1  UNL1       -0.1669
     31 F         145.9900  142.1671  163.9665 F       1  UNL1       -0.1669
     32 F         143.8064  142.7120  164.7456 F       1  UNL1       -0.1669
     33 C         143.7927  140.5018  164.4653 C.3     1  UNL1        0.4311
     34 F         143.5269  139.4944  165.5444 F       1  UNL1       -0.1669
     35 F         144.6379  140.2943  164.6300 F       1  UNL1       -0.1669
     36 F         142.2975  140.4814  164.5824 F       1  UNL1       -0.1669
     37 S         143.6551  131.3371  154.8450 S.O2    1  UNL1        0.0603
     38 O         144.9224  131.3404  155.6475 O.2     1  UNL1       -0.1530
     39 O         142.3878  131.3339  154.0426 O.2     1  UNL1       -0.1530
     40 C         144.7220  128.9874  155.1451 C.3     1  UNL1        0.1102
     41 N         144.0123  129.9917  154.2863 N.3     1  UNL1       -0.1779
     42 H         143.1402  129.5572  153.9846 H       1  UNL1        0.1488
@<TRIPOS>BOND
     1    40    41    1
     2    41    37    1
     3    37    38    2
     4    37    39    2
     5    37     1    1
     6     1     2   ar
     7     2     3   ar
     8     3     4   ar
     9     4     5   ar
    10     5     6   ar
    11     5     7    1
    12     7     8    1
    13     8     9   am
    14     9    10    2
    15     9    12    1
    16    12    13    1
    17    13    14    1
    18    14    15    1
    19     8    11    1
    20    11    16    1
    21    16    17    2
    22    16    18   am
    23    18    20    1
    24    20    21   ar
    25    21    22   ar
    26    22    23   ar
    27    23    26    1
    28    26    27    1
    29    26    29    1
    30    29    30    1
    31    29    31    1
    32    29    32    1
    33    26    33    1
    34    33    34    1
    35    33    35    1
    36    33    36    1
    37    23    24   ar
    38    24    25   ar
    39     6     1   ar
    40    15    12    1
    41    25    20   ar
    42    11     4    1
    43    41    42    1
    44    18    19    1
    45    27    28    1
@<TRIPOS>MOLECULE
*****
 42 45 0 0 0
SMALL
GASTEIGER

@<TRIPOS>ATOM
      1 C         139.2644  146.0840  155.1784 C.ar    1  UNL1        0.1217
      2 C         140.4448  145.1636  155.0810 C.ar    1  UNL1        0.0196
      3 C         140.2377  143.6782  155.0578 C.ar    1  UNL1       -0.0011
      4 C         138.8503  143.1131  155.1321 C.ar    1  UNL1        0.0022
      5 C         137.6699  144.0334  155.2295 C.ar    1  UNL1       -0.0029
      6 C         137.8769  145.5189  155.2527 C.ar    1  UNL1        0.0170
      7 C         136.4295  143.1919  155.2877 C.3     1  UNL1        0.1207
      8 N         136.8433  141.7514  155.2262 N.am    1  UNL1       -0.2635
      9 C         135.9227  140.5675  155.2558 C.2     1  UNL1        0.2537
     10 O         136.4847  139.1785  155.1861 O.2     1  UNL1       -0.2722
     11 C         138.3395  141.7027  155.1301 C.3     1  UNL1        0.1751
     12 C         134.4401  140.7726  155.3549 C.3     1  UNL1        0.1935
     13 C         133.3771  140.3718  156.3343 C.3     1  UNL1        0.0711
     14 C         132.3434  141.0627  155.4951 C.3     1  UNL1        0.1457
     15 O         133.4065  141.4634  154.5157 O.3     1  UNL1       -0.3469
     16 C         139.1776  140.4616  155.0465 C.2     1  UNL1        0.2485
     17 O         140.0513  140.2256  153.8503 O.2     1  UNL1       -0.2726
     18 N         139.1422  139.4563  156.1593 N.am    1  UNL1       -0.2823
     19 H         138.5688  139.6111  156.9444 H       1  UNL1        0.1549
     20 C         139.9804  138.2152  156.0757 C.ar    1  UNL1        0.0503
     21 C         139.6155  137.1274  155.1095 C.ar    1  UNL1        0.0144
     22 C         140.4537  135.8862  155.0260 C.ar    1  UNL1       -0.0002
     23 C         141.6567  135.7328  155.9086 C.ar    1  UNL1        0.0182
     24 C         142.0216  136.8206  156.8748 C.ar    1  UNL1       -0.0002
     25 C         141.1834  138.0617  156.9584 C.ar    1  UNL1        0.0144
     26 C         142.4949  134.4916  155.8251 C.3     1  UNL1        0.2827
     27 O         141.2825  133.6540  156.1049 O.3     1  UNL1       -0.3692
     28 H         140.5101  134.2302  156.2162 H       1  UNL1        0.2112
     29 C         143.3331  133.2505  155.7416 C.3     1  UNL1        0.4311
     30 F         144.1713  132.0093  155.6580 F       1  UNL1       -0.1669
     31 F         142.9789  132.9158  157.1602 F       1  UNL1       -0.1669
     32 F         143.6010  133.3573  154.9041 F       1  UNL1       -0.1669
     33 C         143.7074  135.3293  155.5452 C.3     1  UNL1        0.4311
     34 F         144.9198  136.1669  155.2654 F       1  UNL1       -0.1669
     35 F         144.1489  135.1314  156.2872 F       1  UNL1       -0.1669
     36 F         143.4143  135.9594  154.2160 F       1  UNL1       -0.1669
     37 S         139.4715  147.5694  155.2015 S.O2    1  UNL1        0.0603
     38 O         140.0628  147.5085  153.8244 O.2     1  UNL1       -0.1530
     39 O         138.8801  147.6304  156.5787 O.2     1  UNL1       -0.1530
     40 C         138.5756  149.9587  155.6901 C.3     1  UNL1        0.1102
     41 N         139.6785  149.0549  155.2247 N.3     1  UNL1       -0.1779
     42 H         140.4794  149.2311  155.8313 H       1  UNL1        0.1488
@<TRIPOS>BOND
     1    40    41    1
     2    41    37    1
     3    37    38    2
     4    37    39    2
     5    37     1    1
     6     1     2   ar
     7     2     3   ar
     8     3     4   ar
     9     4     5   ar
    10     5     6   ar
    11     5     7    1
    12     7     8    1
    13     8     9   am
    14     9    10    2
    15     9    12    1
    16    12    13    1
    17    13    14    1
    18    14    15    1
    19     8    11    1
    20    11    16    1
    21    16    17    2
    22    16    18   am
    23    18    20    1
    24    20    21   ar
    25    21    22   ar
    26    22    23   ar
    27    23    26    1
    28    26    27    1
    29    26    29    1
    30    29    30    1
    31    29    31    1
    32    29    32    1
    33    26    33    1
    34    33    34    1
    35    33    35    1
    36    33    36    1
    37    23    24   ar
    38    24    25   ar
    39     6     1   ar
    40    15    12    1
    41    25    20   ar
    42    11     4    1
    43    41    42    1
    44    18    19    1
    45    27    28    1
@<TRIPOS>MOLECULE
*****
 42 45 0 0 0
SMALL
GASTEIGER

@<TRIPOS>ATOM
      1 C         142.3715  136.1495  155.4995 C.ar    1  UNL1        0.1217
      2 C         141.3116  136.4993  156.5016 C.ar    1  UNL1        0.0196
      3 C         141.3738  137.8071  157.2336 C.ar    1  UNL1       -0.0011
      4 C         142.4959  138.7651  156.9635 C.ar    1  UNL1        0.0022
      5 C         143.5558  138.4154  155.9614 C.ar    1  UNL1       -0.0029
      6 C         143.4936  137.1076  155.2294 C.ar    1  UNL1        0.0170
      7 C         144.5338  139.5514  155.9053 C.3     1  UNL1        0.1207
      8 N         144.0782  140.6033  156.8728 N.am    1  UNL1       -0.2635
      9 C         144.7620  141.9115  157.1395 C.2     1  UNL1        0.2537
     10 O         144.1859  142.8685  158.1407 O.2     1  UNL1       -0.2722
     11 C         142.8187  140.1173  157.5267 C.3     1  UNL1        0.1751
     12 C         146.0218  142.2627  156.4050 C.3     1  UNL1        0.1935
     13 C         146.3985  142.4235  154.9620 C.3     1  UNL1        0.0711
     14 C         147.8035  142.7594  155.3663 C.3     1  UNL1        0.1457
     15 O         147.4266  142.5986  156.8092 O.3     1  UNL1       -0.3469
     16 C         142.0220  140.8542  158.5622 C.2     1  UNL1        0.2485
     17 O         140.6622  141.3884  158.2222 O.2     1  UNL1       -0.2726
     18 N         142.5849  141.0568  159.9377 N.am    1  UNL1       -0.2823
     19 H         143.4774  140.7062  160.1609 H       1  UNL1        0.1549
     20 C         141.7882  141.7937  160.9731 C.ar    1  UNL1        0.0503
     21 C         141.8759  143.2884  161.0635 C.ar    1  UNL1        0.0144
     22 C         141.0791  144.0253  162.0989 C.ar    1  UNL1       -0.0002
     23 C         140.1946  143.2675  163.0441 C.ar    1  UNL1        0.0182
     24 C         140.1069  141.7728  162.9538 C.ar    1  UNL1       -0.0002
     25 C         140.9037  141.0360  161.9183 C.ar    1  UNL1        0.0144
     26 C         139.3978  144.0044  164.0795 C.3     1  UNL1        0.2827
     27 O         138.4863  144.5247  163.0079 O.3     1  UNL1       -0.3692
     28 H         138.7756  144.1876  162.1456 H       1  UNL1        0.2112
     29 C         138.6011  144.7413  165.1150 C.3     1  UNL1        0.4311
     30 F         137.8043  145.4781  166.1504 F       1  UNL1       -0.1669
     31 F         137.4059  143.8912  164.8003 F       1  UNL1       -0.1669
     32 F         139.2442  145.2925  165.3739 F       1  UNL1       -0.1669
     33 C         140.3093  143.4841  165.1512 C.3     1  UNL1        0.4311
     34 F         141.2208  142.9638  166.2228 F       1  UNL1       -0.1669
     35 F         141.0191  143.9671  164.9331 F       1  UNL1       -0.1669
     36 F         139.4636  142.4966  165.8992 F       1  UNL1       -0.1669
     37 S         142.3093  134.8418  154.7675 S.O2    1  UNL1        0.0603
     38 O         142.2352  134.1127  156.0763 O.2     1  UNL1       -0.1530
     39 O         142.3835  135.5708  153.4587 O.2     1  UNL1       -0.1530
     40 C         143.0448  132.3618  154.5250 C.3     1  UNL1        0.1102
     41 N         142.2471  133.5340  154.0355 N.3     1  UNL1       -0.1779
     42 H         141.2692  133.2442  154.0330 H       1  UNL1        0.1488
@<TRIPOS>BOND
     1    40    41    1
     2    41    37    1
     3    37    38    2
     4    37    39    2
     5    37     1    1
     6     1     2   ar
     7     2     3   ar
     8     3     4   ar
     9     4     5   ar
    10     5     6   ar
    11     5     7    1
    12     7     8    1
    13     8     9   am
    14     9    10    2
    15     9    12    1
    16    12    13    1
    17    13    14    1
    18    14    15    1
    19     8    11    1
    20    11    16    1
    21    16    17    2
    22    16    18   am
    23    18    20    1
    24    20    21   ar
    25    21    22   ar
    26    22    23   ar
    27    23    26    1
    28    26    27    1
    29    26    29    1
    30    29    30    1
    31    29    31    1
    32    29    32    1
    33    26    33    1
    34    33    34    1
    35    33    35    1
    36    33    36    1
    37    23    24   ar
    38    24    25   ar
    39     6     1   ar
    40    15    12    1
    41    25    20   ar
    42    11     4    1
    43    41    42    1
    44    18    19    1
    45    27    28    1
@<TRIPOS>MOLECULE
*****
 42 45 0 0 0
SMALL
GASTEIGER

@<TRIPOS>ATOM
      1 C         142.9517  137.6881  157.0850 C.ar    1  UNL1        0.1217
      2 C         142.8655  137.2137  158.5054 C.ar    1  UNL1        0.0196
      3 C         142.5427  138.1848  159.6021 C.ar    1  UNL1       -0.0011
      4 C         142.3061  139.6302  159.2785 C.ar    1  UNL1        0.0022
      5 C         142.3923  140.1045  157.8581 C.ar    1  UNL1       -0.0029
      6 C         142.7151  139.1335  156.7613 C.ar    1  UNL1        0.0170
      7 C         142.1118  141.5781  157.8436 C.3     1  UNL1        0.1207
      8 N         141.8522  142.0143  159.2551 N.am    1  UNL1       -0.2635
      9 C         141.5292  143.4095  159.7014 C.2     1  UNL1        0.2537
     10 O         141.2931  143.6963  161.1547 O.2     1  UNL1       -0.2722
     11 C         141.9723  140.8105  160.1418 C.3     1  UNL1        0.1751
     12 C         141.4424  144.5179  158.6945 C.3     1  UNL1        0.1935
     13 C         140.4309  144.9459  157.6729 C.3     1  UNL1        0.0711
     14 C         141.3196  146.0854  157.2705 C.3     1  UNL1        0.1457
     15 O         142.3310  145.6574  158.2922 O.3     1  UNL1       -0.3469
     16 C         141.7905  140.7905  161.6306 C.2     1  UNL1        0.2485
     17 O         140.5314  140.2327  162.2251 O.2     1  UNL1       -0.2726
     18 N         142.8680  141.3282  162.5251 N.am    1  UNL1       -0.2823
     19 H         143.6944  141.6943  162.1350 H       1  UNL1        0.1549
     20 C         142.6862  141.3081  164.0139 C.ar    1  UNL1        0.0503
     21 C         142.9686  140.0542  164.7871 C.ar    1  UNL1        0.0144
     22 C         142.7868  140.0342  166.2759 C.ar    1  UNL1       -0.0002
     23 C         142.3226  141.2680  166.9916 C.ar    1  UNL1        0.0182
     24 C         142.0402  142.5219  166.2183 C.ar    1  UNL1       -0.0002
     25 C         142.2220  142.5420  164.7295 C.ar    1  UNL1        0.0144
     26 C         142.1408  141.2480  168.4804 C.3     1  UNL1        0.2827
     27 O         143.3620  142.1040  168.6410 O.3     1  UNL1       -0.3692
     28 H         143.7361  142.3008  167.7679 H       1  UNL1        0.2112
     29 C         141.9591  141.2279  169.9692 C.3     1  UNL1        0.4311
     30 F         141.7773  141.2079  171.4580 F       1  UNL1       -0.1669
     31 F         143.2328  140.4491  170.1142 F       1  UNL1       -0.1669
     32 F         141.1994  141.6830  169.9913 F       1  UNL1       -0.1669
     33 C         140.9196  140.3919  168.3197 C.3     1  UNL1        0.4311
     34 F         139.6984  139.5359  168.1591 F       1  UNL1       -0.1669
     35 F         141.2764  139.6379  168.6176 F       1  UNL1       -0.1669
     36 F         139.8880  141.3310  167.7685 F       1  UNL1       -0.1669
     37 S         143.2745  136.7170  155.9882 S.O2    1  UNL1        0.0603
     38 O         142.0060  135.9701  156.2762 O.2     1  UNL1       -0.1530
     39 O         144.5431  137.4639  155.7003 O.2     1  UNL1       -0.1530
     40 C         142.5187  134.8741  154.3202 C.3     1  UNL1        0.1102
     41 N         143.5973  135.7460  154.8915 N.3     1  UNL1       -0.1779
     42 H         143.9760  136.2915  154.1173 H       1  UNL1        0.1488
@<TRIPOS>BOND
     1    40    41    1
     2    41    37    1
     3    37    38    2
     4    37    39    2
     5    37     1    1
     6     1     2   ar
     7     2     3   ar
     8     3     4   ar
     9     4     5   ar
    10     5     6   ar
    11     5     7    1
    12     7     8    1
    13     8     9   am
    14     9    10    2
    15     9    12    1
    16    12    13    1
    17    13    14    1
    18    14    15    1
    19     8    11    1
    20    11    16    1
    21    16    17    2
    22    16    18   am
    23    18    20    1
    24    20    21   ar
    25    21    22   ar
    26    22    23   ar
    27    23    26    1
    28    26    27    1
    29    26    29    1
    30    29    30    1
    31    29    31    1
    32    29    32    1
    33    26    33    1
    34    33    34    1
    35    33    35    1
    36    33    36    1
    37    23    24   ar
    38    24    25   ar
    39     6     1   ar
    40    15    12    1
    41    25    20   ar
    42    11     4    1
    43    41    42    1
    44    18    19    1
    45    27    28    1
@<TRIPOS>MOLECULE
*****
 42 45 0 0 0
SMALL
GASTEIGER

@<TRIPOS>ATOM
      1 C         140.8667  144.2592  157.1584 C.ar    1  UNL1        0.1217
      2 C         140.4985  143.1132  156.2634 C.ar    1  UNL1        0.0196
      3 C         140.9304  141.7199  156.6127 C.ar    1  UNL1       -0.0011
      4 C         141.7306  141.4725  157.8571 C.ar    1  UNL1        0.0022
      5 C         142.0988  142.6185  158.7521 C.ar    1  UNL1       -0.0029
      6 C         141.6669  144.0119  158.4028 C.ar    1  UNL1        0.0170
      7 C         142.8892  142.0718  159.9039 C.3     1  UNL1        0.1207
      8 N         143.0094  140.5879  159.7207 N.am    1  UNL1       -0.2635
      9 C         143.7208  139.6406  160.6408 C.2     1  UNL1        0.2537
     10 O         143.7576  138.1746  160.3258 O.2     1  UNL1       -0.2722
     11 C         142.2934  140.2176  158.4557 C.3     1  UNL1        0.1751
     12 C         144.3954  140.1595  161.8760 C.3     1  UNL1        0.1935
     13 C         144.4066  139.7655  163.3233 C.3     1  UNL1        0.0711
     14 C         145.3494  140.8932  163.6229 C.3     1  UNL1        0.1457
     15 O         145.3381  141.2870  162.1756 O.3     1  UNL1       -0.3469
     16 C         142.1630  138.8350  157.8888 C.2     1  UNL1        0.2485
     17 O         140.8483  138.1162  157.9595 O.2     1  UNL1       -0.2726
     18 N         143.3473  138.1710  157.2511 N.am    1  UNL1       -0.2823
     19 H         144.2102  138.6428  157.2046 H       1  UNL1        0.1549
     20 C         143.2169  136.7884  156.6842 C.ar    1  UNL1        0.0503
     21 C         143.1179  136.5925  155.2003 C.ar    1  UNL1        0.0144
     22 C         142.9875  135.2099  154.6334 C.ar    1  UNL1       -0.0002
     23 C         142.9561  134.0232  155.5503 C.ar    1  UNL1        0.0182
     24 C         143.0551  134.2191  157.0342 C.ar    1  UNL1       -0.0002
     25 C         143.1855  135.6017  157.6011 C.ar    1  UNL1        0.0144
     26 C         142.8257  132.6406  154.9834 C.3     1  UNL1        0.2827
     27 O         141.6127  133.0709  154.2130 O.3     1  UNL1       -0.3692
     28 H         141.4308  134.0066  154.3925 H       1  UNL1        0.2112
     29 C         142.6953  131.2580  154.4165 C.3     1  UNL1        0.4311
     30 F         142.5649  129.8754  153.8496 F       1  UNL1       -0.1669
     31 F         141.4103  131.0713  155.1674 F       1  UNL1       -0.1669
     32 F         143.4390  131.2679  153.9356 F       1  UNL1       -0.1669
     33 C         144.0386  132.2103  155.7538 C.3     1  UNL1        0.4311
     34 F         145.2516  131.7800  156.5243 F       1  UNL1       -0.1669
     35 F         144.6197  132.7390  155.3446 F       1  UNL1       -0.1669
     36 F         143.5148  131.1797  156.7096 F       1  UNL1       -0.1669
     37 S         140.4348  145.6525  156.8090 S.O2    1  UNL1        0.0603
     38 O         140.2057  145.9459  158.2621 O.2     1  UNL1       -0.1530
     39 O         140.6639  145.3592  155.3559 O.2     1  UNL1       -0.1530
     40 C         138.8998  147.2623  155.4666 C.3     1  UNL1        0.1102
     41 N         140.0028  147.0459  156.4597 N.3     1  UNL1       -0.1779
     42 H         139.7072  147.4893  157.3294 H       1  UNL1        0.1488
@<TRIPOS>BOND
     1    40    41    1
     2    41    37    1
     3    37    38    2
     4    37    39    2
     5    37     1    1
     6     1     2   ar
     7     2     3   ar
     8     3     4   ar
     9     4     5   ar
    10     5     6   ar
    11     5     7    1
    12     7     8    1
    13     8     9   am
    14     9    10    2
    15     9    12    1
    16    12    13    1
    17    13    14    1
    18    14    15    1
    19     8    11    1
    20    11    16    1
    21    16    17    2
    22    16    18   am
    23    18    20    1
    24    20    21   ar
    25    21    22   ar
    26    22    23   ar
    27    23    26    1
    28    26    27    1
    29    26    29    1
    30    29    30    1
    31    29    31    1
    32    29    32    1
    33    26    33    1
    34    33    34    1
    35    33    35    1
    36    33    36    1
    37    23    24   ar
    38    24    25   ar
    39     6     1   ar
    40    15    12    1
    41    25    20   ar
    42    11     4    1
    43    41    42    1
    44    18    19    1
    45    27    28    1
