@<TRIPOS>MOLECULE
*****
 37 41 0 0 0
SMALL
GASTEIGER

@<TRIPOS>ATOM
      1 N         140.6738  140.2881  164.8534 N.ar    1  UNL1       -0.2823
      2 C         142.0620  140.2583  165.4209 C.ar    1  UNL1        0.2034
      3 N         142.9979  139.8203  164.3336 N.ar    1  UNL1       -0.1958
      4 C         142.1882  139.5793  163.0942 C.ar    1  UNL1        0.1708
      5 C         140.7518  139.8685  163.4154 C.ar    1  UNL1        0.1544
      6 C         139.7005  139.7123  162.3570 C.ar    1  UNL1        0.2835
      7 O         138.2641  140.0014  162.6782 O.2     1  UNL1       -0.2651
      8 N         140.0855  139.2669  160.9774 N.ar    1  UNL1       -0.2399
      9 C         141.5219  138.9778  160.6561 C.ar    1  UNL1        0.3353
     10 O         141.9069  138.5324  159.2765 O.2     1  UNL1       -0.2461
     11 N         142.5733  139.1340  161.7145 N.ar    1  UNL1       -0.2628
     12 C         144.0096  138.8449  161.3933 C.3     1  UNL1        0.1366
     13 N         142.4467  140.6057  166.8285 N.pl3   1  UNL1       -0.2781
     14 C         142.8604  142.0067  167.1690 C.3     1  UNL1        0.0937
     15 C         143.2451  142.3539  168.5766 C.3     1  UNL1        0.0229
     16 C         143.2161  141.3001  169.6437 C.3     1  UNL1        0.0190
     17 C         142.8024  139.8991  169.3033 C.3     1  UNL1        0.0710
     18 N         142.7735  138.8454  170.3704 N.3     1  UNL1       -0.3208
     19 C         142.4177  139.5519  167.8957 C.3     1  UNL1        0.1089
     20 H         143.0624  139.2536  171.2593 H       1  UNL1        0.1189
     21 H         143.4115  138.0900  170.1197 H       1  UNL1        0.1189
     22 C         139.4266  140.6704  165.5938 C.3     1  UNL1        0.1854
     23 C         136.9237  137.4979  167.5740 C.3     1  UNL1        0.0900
     24 C         137.7580  138.5554  166.9139 C.1     1  UNL1       -0.0881
     25 C         138.5923  139.6129  166.2539 C.1     1  UNL1       -0.0656
     26 C         139.0341  139.1107  159.9189 C.3     1  UNL1        0.1791
     27 C         138.7371  140.2453  158.9836 C.ar    1  UNL1        0.1617
     28 N         139.5738  141.4896  159.0245 N.ar    1  UNL1       -0.2330
     29 C         139.2768  142.6241  158.0893 C.ar    1  UNL1        0.0622
     30 C         140.1135  143.8684  158.1301 C.3     1  UNL1        0.0522
     31 C         138.1430  142.5143  157.1132 C.ar    1  UNL1        0.0313
     32 C         137.8460  143.6488  156.1780 C.ar    1  UNL1        0.0027
     33 C         136.7124  143.5390  155.2019 C.ar    1  UNL1        0.0001
     34 C         135.8757  142.2947  155.1611 C.ar    1  UNL1        0.0015
     35 C         136.1727  141.1602  156.0963 C.ar    1  UNL1        0.0192
     36 C         137.3064  141.2700  157.0723 C.ar    1  UNL1        0.0838
     37 N         137.6034  140.1354  158.0076 N.ar    1  UNL1       -0.2287
@<TRIPOS>BOND
     1    23    24    1
     2    24    25    3
     3    25    22    1
     4    22     1    1
     5     1     2   ar
     6     2    13    1
     7    13    14    1
     8    14    15    1
     9    15    16    1
    10    16    17    1
    11    17    18    1
    12    17    19    1
    13     2     3   ar
    14     3     4   ar
    15     4     5   ar
    16     5     6   ar
    17     6     7    2
    18     6     8   ar
    19     8    26    1
    20    26    27    1
    21    27    28   ar
    22    28    29   ar
    23    29    30    1
    24    29    31   ar
    25    31    32   ar
    26    32    33   ar
    27    33    34   ar
    28    34    35   ar
    29    35    36   ar
    30    36    37   ar
    31     8     9   ar
    32     9    10    2
    33     9    11   ar
    34    11    12    1
    35     5     1   ar
    36    37    27   ar
    37    19    13    1
    38    11     4   ar
    39    36    31   ar
    40    18    20    1
    41    18    21    1
@<TRIPOS>MOLECULE
*****
 37 41 0 0 0
SMALL
GASTEIGER

@<TRIPOS>ATOM
      1 N         141.0664  138.9123  162.6801 N.ar    1  UNL1       -0.2823
      2 C         139.7660  139.3621  163.2771 C.ar    1  UNL1        0.2034
      3 N         138.8434  139.7318  162.1536 N.ar    1  UNL1       -0.1958
      4 C         139.5738  139.5105  160.8623 C.ar    1  UNL1        0.1708
      5 C         140.9476  139.0040  161.1876 C.ar    1  UNL1        0.1544
      6 C         141.9130  138.6917  160.0828 C.ar    1  UNL1        0.2835
      7 O         143.2869  138.1852  160.4081 O.2     1  UNL1       -0.2651
      8 N         141.5045  138.8859  158.6527 N.ar    1  UNL1       -0.2399
      9 C         140.1305  139.3924  158.3273 C.ar    1  UNL1        0.3353
     10 O         139.7220  139.5866  156.8971 O.2     1  UNL1       -0.2461
     11 N         139.1652  139.7047  159.4321 N.ar    1  UNL1       -0.2628
     12 C         137.7913  140.2112  159.1067 C.3     1  UNL1        0.1366
     13 N         139.4445  139.4303  164.7407 N.pl3   1  UNL1       -0.2781
     14 C         140.1779  140.3942  165.6256 C.3     1  UNL1        0.0937
     15 C         139.8563  140.4623  167.0891 C.3     1  UNL1        0.0229
     16 C         138.8014  139.5666  167.6677 C.3     1  UNL1        0.0190
     17 C         138.0680  138.6027  166.7829 C.3     1  UNL1        0.0710
     18 N         137.0131  137.7070  167.3615 N.3     1  UNL1       -0.3208
     19 C         138.3896  138.5346  165.3193 C.3     1  UNL1        0.1089
     20 H         136.9265  137.8859  168.3619 H       1  UNL1        0.1189
     21 H         137.2750  136.7326  167.2118 H       1  UNL1        0.1189
     22 C         142.2738  138.4516  163.4417 C.3     1  UNL1        0.1854
     23 C         145.7765  141.2219  163.9959 C.3     1  UNL1        0.0900
     24 C         144.6089  140.2985  163.8112 C.1     1  UNL1       -0.0881
     25 C         143.4413  139.3750  163.6265 C.1     1  UNL1       -0.0656
     26 C         142.4698  138.5736  157.5479 C.3     1  UNL1        0.1791
     27 C         142.4849  137.2072  156.9290 C.ar    1  UNL1        0.1617
     28 N         141.7367  136.9530  155.6541 N.ar    1  UNL1       -0.2330
     29 C         141.7518  135.5868  155.0352 C.ar    1  UNL1        0.0622
     30 C         141.0035  135.3326  153.7603 C.3     1  UNL1        0.0522
     31 C         142.5152  134.4746  155.6913 C.ar    1  UNL1        0.0313
     32 C         142.5302  133.1083  155.0725 C.ar    1  UNL1        0.0027
     33 C         143.2936  131.9962  155.7286 C.ar    1  UNL1        0.0001
     34 C         144.0419  132.2504  157.0035 C.ar    1  UNL1        0.0015
     35 C         144.0268  133.6167  157.6223 C.ar    1  UNL1        0.0192
     36 C         143.2634  134.7288  156.9663 C.ar    1  UNL1        0.0838
     37 N         143.2483  136.0951  157.5851 N.ar    1  UNL1       -0.2287
@<TRIPOS>BOND
     1    23    24    1
     2    24    25    3
     3    25    22    1
     4    22     1    1
     5     1     2   ar
     6     2    13    1
     7    13    14    1
     8    14    15    1
     9    15    16    1
    10    16    17    1
    11    17    18    1
    12    17    19    1
    13     2     3   ar
    14     3     4   ar
    15     4     5   ar
    16     5     6   ar
    17     6     7    2
    18     6     8   ar
    19     8    26    1
    20    26    27    1
    21    27    28   ar
    22    28    29   ar
    23    29    30    1
    24    29    31   ar
    25    31    32   ar
    26    32    33   ar
    27    33    34   ar
    28    34    35   ar
    29    35    36   ar
    30    36    37   ar
    31     8     9   ar
    32     9    10    2
    33     9    11   ar
    34    11    12    1
    35     5     1   ar
    36    37    27   ar
    37    19    13    1
    38    11     4   ar
    39    36    31   ar
    40    18    20    1
    41    18    21    1
@<TRIPOS>MOLECULE
*****
 37 41 0 0 0
SMALL
GASTEIGER

@<TRIPOS>ATOM
      1 N         140.5630  139.4229  159.5818 N.ar    1  UNL1       -0.2823
      2 C         139.2333  140.1156  159.6271 C.ar    1  UNL1        0.2034
      3 N         138.5477  139.8893  158.3122 N.ar    1  UNL1       -0.1958
      4 C         139.4537  139.0568  157.4544 C.ar    1  UNL1        0.1708
      5 C         140.6992  138.7686  158.2389 C.ar    1  UNL1        0.1544
      6 C         141.7965  137.9475  157.6292 C.ar    1  UNL1        0.2835
      7 O         143.0420  137.6592  158.4138 O.2     1  UNL1       -0.2651
      8 N         141.6483  137.4146  156.2349 N.ar    1  UNL1       -0.2399
      9 C         140.4027  137.7028  155.4503 C.ar    1  UNL1        0.3353
     10 O         140.2545  137.1700  154.0560 O.2     1  UNL1       -0.2461
     11 N         139.3054  138.5239  156.0600 N.ar    1  UNL1       -0.2628
     12 C         138.0599  138.8121  155.2755 C.3     1  UNL1        0.1366
     13 N         138.6853  140.8973  160.7841 N.pl3   1  UNL1       -0.2781
     14 C         137.9763  140.1883  161.8997 C.3     1  UNL1        0.0937
     15 C         137.4284  140.9700  163.0567 C.3     1  UNL1        0.0229
     16 C         137.5894  142.4608  163.0981 C.3     1  UNL1        0.0190
     17 C         138.2983  143.1698  161.9824 C.3     1  UNL1        0.0710
     18 N         138.4593  144.6606  162.0238 N.3     1  UNL1       -0.3208
     19 C         138.8463  142.3881  160.8255 C.3     1  UNL1        0.1089
     20 H         138.0306  145.0254  162.8744 H       1  UNL1        0.1189
     21 H         138.0051  145.0743  161.2096 H       1  UNL1        0.1189
     22 C         141.5782  139.3904  160.6855 C.3     1  UNL1        0.1854
     23 C         140.8780  136.8188  164.3114 C.3     1  UNL1        0.0900
     24 C         141.1114  137.6760  163.1027 C.1     1  UNL1       -0.0881
     25 C         141.3448  138.5332  161.8941 C.1     1  UNL1       -0.0656
     26 C         142.7456  136.5935  155.6252 C.3     1  UNL1        0.1791
     27 C         142.8024  135.1152  155.8731 C.ar    1  UNL1        0.1617
     28 N         141.7931  134.2082  155.2338 N.ar    1  UNL1       -0.2330
     29 C         141.8498  132.7300  155.4817 C.ar    1  UNL1        0.0622
     30 C         140.8405  131.8230  154.8424 C.3     1  UNL1        0.0522
     31 C         142.9159  132.1586  156.3689 C.ar    1  UNL1        0.0313
     32 C         142.9726  130.6803  156.6167 C.ar    1  UNL1        0.0027
     33 C         144.0387  130.1090  157.5038 C.ar    1  UNL1        0.0001
     34 C         145.0480  131.0160  158.1431 C.ar    1  UNL1        0.0015
     35 C         144.9913  132.4942  157.8953 C.ar    1  UNL1        0.0192
     36 C         143.9252  133.0655  157.0081 C.ar    1  UNL1        0.0838
     37 N         143.8684  134.5439  156.7603 N.ar    1  UNL1       -0.2287
@<TRIPOS>BOND
     1    23    24    1
     2    24    25    3
     3    25    22    1
     4    22     1    1
     5     1     2   ar
     6     2    13    1
     7    13    14    1
     8    14    15    1
     9    15    16    1
    10    16    17    1
    11    17    18    1
    12    17    19    1
    13     2     3   ar
    14     3     4   ar
    15     4     5   ar
    16     5     6   ar
    17     6     7    2
    18     6     8   ar
    19     8    26    1
    20    26    27    1
    21    27    28   ar
    22    28    29   ar
    23    29    30    1
    24    29    31   ar
    25    31    32   ar
    26    32    33   ar
    27    33    34   ar
    28    34    35   ar
    29    35    36   ar
    30    36    37   ar
    31     8     9   ar
    32     9    10    2
    33     9    11   ar
    34    11    12    1
    35     5     1   ar
    36    37    27   ar
    37    19    13    1
    38    11     4   ar
    39    36    31   ar
    40    18    20    1
    41    18    21    1
@<TRIPOS>MOLECULE
*****
 37 41 0 0 0
SMALL
GASTEIGER

@<TRIPOS>ATOM
      1 N         140.4239  141.2136  164.9550 N.ar    1  UNL1       -0.2823
      2 C         140.7503  142.4827  165.6849 C.ar    1  UNL1        0.2034
      3 N         140.4978  143.6311  164.7535 N.ar    1  UNL1       -0.1958
      4 C         140.0155  143.0717  163.4481 C.ar    1  UNL1        0.1708
      5 C         139.9697  141.5776  163.5725 C.ar    1  UNL1        0.1544
      6 C         139.5205  140.7417  162.4109 C.ar    1  UNL1        0.2835
      7 O         139.4747  139.2476  162.5354 O.2     1  UNL1       -0.2651
      8 N         139.1169  141.3998  161.1249 N.ar    1  UNL1       -0.2399
      9 C         139.1626  142.8940  161.0004 C.ar    1  UNL1        0.3353
     10 O         138.7591  143.5521  159.7143 O.2     1  UNL1       -0.2461
     11 N         139.6119  143.7299  162.1619 N.ar    1  UNL1       -0.2628
     12 C         139.6576  145.2240  162.0375 C.3     1  UNL1        0.1366
     13 N         141.2427  142.5854  167.0981 N.pl3   1  UNL1       -0.2781
     14 C         142.6598  142.2199  167.4270 C.3     1  UNL1        0.0937
     15 C         143.1521  142.3226  168.8401 C.3     1  UNL1        0.0229
     16 C         142.2273  142.7908  169.9244 C.3     1  UNL1        0.0190
     17 C         140.8102  143.1563  169.5955 C.3     1  UNL1        0.0710
     18 N         139.8855  143.6245  170.6797 N.3     1  UNL1       -0.3208
     19 C         140.3179  143.0536  168.1823 C.3     1  UNL1        0.1089
     20 H         140.3826  143.6334  171.5703 H       1  UNL1        0.1189
     21 H         139.0873  142.9926  170.7422 H       1  UNL1        0.1189
     22 C         140.5325  139.8243  165.5100 C.3     1  UNL1        0.1854
     23 C         136.9682  137.8992  167.4697 C.3     1  UNL1        0.0900
     24 C         138.1563  138.5409  166.8164 C.1     1  UNL1       -0.0881
     25 C         139.3445  139.1826  166.1632 C.1     1  UNL1       -0.0656
     26 C         138.6676  140.5638  159.9633 C.3     1  UNL1        0.1791
     27 C         139.6820  139.8889  159.0881 C.ar    1  UNL1        0.1617
     28 N         141.1311  140.2612  159.1952 N.ar    1  UNL1       -0.2330
     29 C         142.1454  139.5864  158.3201 C.ar    1  UNL1        0.0622
     30 C         143.5945  139.9586  158.4272 C.3     1  UNL1        0.0522
     31 C         141.7106  138.5393  157.3380 C.ar    1  UNL1        0.0313
     32 C         142.7249  137.8645  156.4629 C.ar    1  UNL1        0.0027
     33 C         142.2901  136.8174  155.4808 C.ar    1  UNL1        0.0001
     34 C         140.8410  136.4452  155.3738 C.ar    1  UNL1        0.0015
     35 C         139.8267  137.1200  156.2488 C.ar    1  UNL1        0.0192
     36 C         140.2615  138.1670  157.2309 C.ar    1  UNL1        0.0838
     37 N         139.2472  138.8419  158.1060 N.ar    1  UNL1       -0.2287
@<TRIPOS>BOND
     1    23    24    1
     2    24    25    3
     3    25    22    1
     4    22     1    1
     5     1     2   ar
     6     2    13    1
     7    13    14    1
     8    14    15    1
     9    15    16    1
    10    16    17    1
    11    17    18    1
    12    17    19    1
    13     2     3   ar
    14     3     4   ar
    15     4     5   ar
    16     5     6   ar
    17     6     7    2
    18     6     8   ar
    19     8    26    1
    20    26    27    1
    21    27    28   ar
    22    28    29   ar
    23    29    30    1
    24    29    31   ar
    25    31    32   ar
    26    32    33   ar
    27    33    34   ar
    28    34    35   ar
    29    35    36   ar
    30    36    37   ar
    31     8     9   ar
    32     9    10    2
    33     9    11   ar
    34    11    12    1
    35     5     1   ar
    36    37    27   ar
    37    19    13    1
    38    11     4   ar
    39    36    31   ar
    40    18    20    1
    41    18    21    1
@<TRIPOS>MOLECULE
*****
 37 41 0 0 0
SMALL
GASTEIGER

@<TRIPOS>ATOM
      1 N         140.1615  140.8394  165.8085 N.ar    1  UNL1       -0.2823
      2 C         140.5551  142.1123  166.4975 C.ar    1  UNL1        0.2034
      3 N         140.1227  143.2598  165.6336 N.ar    1  UNL1       -0.1958
      4 C         139.4620  142.6961  164.4107 C.ar    1  UNL1        0.1708
      5 C         139.4859  141.2002  164.5188 C.ar    1  UNL1        0.1544
      6 C         138.8894  140.3599  163.4288 C.ar    1  UNL1        0.2835
      7 O         138.9134  138.8640  163.5368 O.2     1  UNL1       -0.2651
      8 N         138.2690  141.0154  162.2308 N.ar    1  UNL1       -0.2399
      9 C         138.2451  142.5114  162.1227 C.ar    1  UNL1        0.3353
     10 O         137.6247  143.1670  160.9247 O.2     1  UNL1       -0.2461
     11 N         138.8415  143.3517  163.2127 N.ar    1  UNL1       -0.2628
     12 C         138.8176  144.8476  163.1046 C.3     1  UNL1        0.1366
     13 N         141.2577  142.2189  167.8186 N.pl3   1  UNL1       -0.2781
     14 C         142.7546  142.3014  167.8674 C.3     1  UNL1        0.0937
     15 C         143.4571  142.4080  169.1884 C.3     1  UNL1        0.0229
     16 C         142.6627  142.4323  170.4605 C.3     1  UNL1        0.0190
     17 C         141.1658  142.3499  170.4117 C.3     1  UNL1        0.0710
     18 N         140.3714  142.3741  171.6838 N.3     1  UNL1       -0.3208
     19 C         140.4633  142.2432  169.0907 C.3     1  UNL1        0.1089
     20 H         141.0055  142.4496  172.4792 H       1  UNL1        0.1189
     21 H         139.8286  141.5141  171.7622 H       1  UNL1        0.1189
     22 C         140.4013  139.4496  166.3194 C.3     1  UNL1        0.1854
     23 C         144.5872  137.8065  166.4906 C.3     1  UNL1        0.0900
     24 C         143.1919  138.3542  166.4335 C.1     1  UNL1       -0.0881
     25 C         141.7966  138.9019  166.3765 C.1     1  UNL1       -0.0656
     26 C         137.6725  140.1751  161.1408 C.3     1  UNL1        0.1791
     27 C         138.4612  139.8898  159.8971 C.ar    1  UNL1        0.1617
     28 N         137.9142  140.2803  158.5561 N.ar    1  UNL1       -0.2330
     29 C         138.7027  139.9950  157.3124 C.ar    1  UNL1        0.0622
     30 C         138.1557  140.3855  155.9714 C.3     1  UNL1        0.0522
     31 C         140.0384  139.3191  157.4097 C.ar    1  UNL1        0.0313
     32 C         140.8269  139.0338  156.1660 C.ar    1  UNL1        0.0027
     33 C         142.1625  138.3580  156.2634 C.ar    1  UNL1        0.0001
     34 C         142.7095  137.9676  157.6044 C.ar    1  UNL1        0.0015
     35 C         141.9209  138.2529  158.8480 C.ar    1  UNL1        0.0192
     36 C         140.5854  138.9286  158.7507 C.ar    1  UNL1        0.0838
     37 N         139.7967  139.2140  159.9944 N.ar    1  UNL1       -0.2287
@<TRIPOS>BOND
     1    23    24    1
     2    24    25    3
     3    25    22    1
     4    22     1    1
     5     1     2   ar
     6     2    13    1
     7    13    14    1
     8    14    15    1
     9    15    16    1
    10    16    17    1
    11    17    18    1
    12    17    19    1
    13     2     3   ar
    14     3     4   ar
    15     4     5   ar
    16     5     6   ar
    17     6     7    2
    18     6     8   ar
    19     8    26    1
    20    26    27    1
    21    27    28   ar
    22    28    29   ar
    23    29    30    1
    24    29    31   ar
    25    31    32   ar
    26    32    33   ar
    27    33    34   ar
    28    34    35   ar
    29    35    36   ar
    30    36    37   ar
    31     8     9   ar
    32     9    10    2
    33     9    11   ar
    34    11    12    1
    35     5     1   ar
    36    37    27   ar
    37    19    13    1
    38    11     4   ar
    39    36    31   ar
    40    18    20    1
    41    18    21    1
@<TRIPOS>MOLECULE
*****
 37 41 0 0 0
SMALL
GASTEIGER

@<TRIPOS>ATOM
      1 N         141.3567  138.5093  157.1254 N.ar    1  UNL1       -0.2823
      2 C         142.6283  137.8449  156.6875 C.ar    1  UNL1        0.2034
      3 N         143.7316  138.8582  156.7661 N.ar    1  UNL1       -0.1958
      4 C         143.1418  140.1487  157.2525 C.ar    1  UNL1        0.1708
      5 C         141.6741  139.9331  157.4745 C.ar    1  UNL1        0.1544
      6 C         140.8162  141.0612  157.9660 C.ar    1  UNL1        0.2835
      7 O         139.3485  140.8456  158.1881 O.2     1  UNL1       -0.2651
      8 N         141.4260  142.4049  158.2354 N.ar    1  UNL1       -0.2399
      9 C         142.8938  142.6205  158.0133 C.ar    1  UNL1        0.3353
     10 O         143.5036  143.9642  158.2827 O.2     1  UNL1       -0.2461
     11 N         143.7517  141.4925  157.5218 N.ar    1  UNL1       -0.2628
     12 C         145.2194  141.7081  157.2998 C.3     1  UNL1        0.1366
     13 N         142.7715  136.4178  156.2482 N.pl3   1  UNL1       -0.2781
     14 C         142.5305  136.0464  154.8151 C.3     1  UNL1        0.0937
     15 C         142.6737  134.6194  154.3759 C.3     1  UNL1        0.0229
     16 C         143.0580  133.5637  155.3698 C.3     1  UNL1        0.0190
     17 C         143.2991  133.9351  156.8029 C.3     1  UNL1        0.0710
     18 N         143.6833  132.8794  157.7968 N.3     1  UNL1       -0.3208
     19 C         143.1558  135.3621  157.2422 C.3     1  UNL1        0.1089
     20 H         143.7342  131.9744  157.3291 H       1  UNL1        0.1189
     21 H         142.9841  132.8400  158.5384 H       1  UNL1        0.1189
     22 C         140.0051  137.8632  157.2009 C.3     1  UNL1        0.1854
     23 C         137.5521  137.3349  153.4653 C.3     1  UNL1        0.0900
     24 C         138.3698  137.5111  154.7105 C.1     1  UNL1       -0.0881
     25 C         139.1875  137.6871  155.9557 C.1     1  UNL1       -0.0656
     26 C         140.5682  143.5329  158.7268 C.3     1  UNL1        0.1791
     27 C         140.4671  143.8129  160.1971 C.ar    1  UNL1        0.1617
     28 N         141.6881  144.2167  160.9693 N.ar    1  UNL1       -0.2330
     29 C         141.5871  144.4966  162.4394 C.ar    1  UNL1        0.0622
     30 C         142.8080  144.9005  163.2116 C.3     1  UNL1        0.0522
     31 C         140.2652  144.3727  163.1375 C.ar    1  UNL1        0.0313
     32 C         140.1642  144.6526  164.6076 C.ar    1  UNL1        0.0027
     33 C         138.8423  144.5287  165.3056 C.ar    1  UNL1        0.0001
     34 C         137.6214  144.1248  164.5334 C.ar    1  UNL1        0.0015
     35 C         137.7224  143.8449  163.0633 C.ar    1  UNL1        0.0192
     36 C         139.0442  143.9688  162.3653 C.ar    1  UNL1        0.0838
     37 N         139.1453  143.6889  160.8951 N.ar    1  UNL1       -0.2287
@<TRIPOS>BOND
     1    23    24    1
     2    24    25    3
     3    25    22    1
     4    22     1    1
     5     1     2   ar
     6     2    13    1
     7    13    14    1
     8    14    15    1
     9    15    16    1
    10    16    17    1
    11    17    18    1
    12    17    19    1
    13     2     3   ar
    14     3     4   ar
    15     4     5   ar
    16     5     6   ar
    17     6     7    2
    18     6     8   ar
    19     8    26    1
    20    26    27    1
    21    27    28   ar
    22    28    29   ar
    23    29    30    1
    24    29    31   ar
    25    31    32   ar
    26    32    33   ar
    27    33    34   ar
    28    34    35   ar
    29    35    36   ar
    30    36    37   ar
    31     8     9   ar
    32     9    10    2
    33     9    11   ar
    34    11    12    1
    35     5     1   ar
    36    37    27   ar
    37    19    13    1
    38    11     4   ar
    39    36    31   ar
    40    18    20    1
    41    18    21    1
@<TRIPOS>MOLECULE
*****
 37 41 0 0 0
SMALL
GASTEIGER

@<TRIPOS>ATOM
      1 N         140.4047  141.0412  165.3983 N.ar    1  UNL1       -0.2823
      2 C         141.3278  141.3319  166.5443 C.ar    1  UNL1        0.2034
      3 N         142.7313  141.3520  166.0153 N.ar    1  UNL1       -0.1958
      4 C         142.6755  141.0737  164.5424 C.ar    1  UNL1        0.1708
      5 C         141.2376  140.8817  164.1611 C.ar    1  UNL1        0.1544
      6 C         140.8725  140.5863  162.7365 C.ar    1  UNL1        0.2835
      7 O         139.4346  140.3943  162.3552 O.2     1  UNL1       -0.2651
      8 N         141.9453  140.4830  161.6933 N.ar    1  UNL1       -0.2399
      9 C         143.3833  140.6750  162.0746 C.ar    1  UNL1        0.3353
     10 O         144.4561  140.5717  161.0314 O.2     1  UNL1       -0.2461
     11 N         143.7484  140.9704  163.4992 N.ar    1  UNL1       -0.2628
     12 C         145.1863  141.1624  163.8805 C.3     1  UNL1        0.1366
     13 N         140.9193  141.5621  167.9692 N.pl3   1  UNL1       -0.2781
     14 C         140.7866  142.9607  168.4947 C.3     1  UNL1        0.0937
     15 C         140.3780  143.1908  169.9195 C.3     1  UNL1        0.0229
     16 C         140.1022  142.0224  170.8188 C.3     1  UNL1        0.0190
     17 C         140.2349  140.6238  170.2932 C.3     1  UNL1        0.0710
     18 N         139.9590  139.4553  171.1924 N.3     1  UNL1       -0.3208
     19 C         140.6434  140.3936  168.8684 C.3     1  UNL1        0.1089
     20 H         139.6962  139.7934  172.1182 H       1  UNL1        0.1189
     21 H         140.7967  138.8781  171.2664 H       1  UNL1        0.1189
     22 C         138.9109  140.9297  165.4759 C.3     1  UNL1        0.1854
     23 C         137.0212  137.3577  167.4558 C.3     1  UNL1        0.0900
     24 C         137.6511  138.5483  166.7959 C.1     1  UNL1       -0.0881
     25 C         138.2810  139.7391  166.1359 C.1     1  UNL1       -0.0656
     26 C         141.5801  140.1876  160.2687 C.3     1  UNL1        0.1791
     27 C         141.0885  141.2889  159.3767 C.ar    1  UNL1        0.1617
     28 N         139.6959  141.2391  158.8216 N.ar    1  UNL1       -0.2330
     29 C         139.2042  142.3403  157.9297 C.ar    1  UNL1        0.0622
     30 C         137.8116  142.2906  157.3746 C.3     1  UNL1        0.0522
     31 C         140.1053  143.4913  157.5927 C.ar    1  UNL1        0.0313
     32 C         139.6136  144.5924  156.7007 C.ar    1  UNL1        0.0027
     33 C         140.5147  145.7433  156.3637 C.ar    1  UNL1        0.0001
     34 C         141.9073  145.7930  156.9187 C.ar    1  UNL1        0.0015
     35 C         142.3989  144.6919  157.8107 C.ar    1  UNL1        0.0192
     36 C         141.4979  143.5410  158.1477 C.ar    1  UNL1        0.0838
     37 N         141.9895  142.4397  159.0397 N.ar    1  UNL1       -0.2287
@<TRIPOS>BOND
     1    23    24    1
     2    24    25    3
     3    25    22    1
     4    22     1    1
     5     1     2   ar
     6     2    13    1
     7    13    14    1
     8    14    15    1
     9    15    16    1
    10    16    17    1
    11    17    18    1
    12    17    19    1
    13     2     3   ar
    14     3     4   ar
    15     4     5   ar
    16     5     6   ar
    17     6     7    2
    18     6     8   ar
    19     8    26    1
    20    26    27    1
    21    27    28   ar
    22    28    29   ar
    23    29    30    1
    24    29    31   ar
    25    31    32   ar
    26    32    33   ar
    27    33    34   ar
    28    34    35   ar
    29    35    36   ar
    30    36    37   ar
    31     8     9   ar
    32     9    10    2
    33     9    11   ar
    34    11    12    1
    35     5     1   ar
    36    37    27   ar
    37    19    13    1
    38    11     4   ar
    39    36    31   ar
    40    18    20    1
    41    18    21    1
@<TRIPOS>MOLECULE
*****
 37 41 0 0 0
SMALL
GASTEIGER

@<TRIPOS>ATOM
      1 N         140.1732  140.9931  165.2540 N.ar    1  UNL1       -0.2823
      2 C         140.6647  142.2724  165.8637 C.ar    1  UNL1        0.2034
      3 N         140.3976  143.3823  164.8906 N.ar    1  UNL1       -0.1958
      4 C         139.7410  142.7889  163.6796 C.ar    1  UNL1        0.1708
      5 C         139.6023  141.3123  163.9041 C.ar    1  UNL1        0.1544
      6 C         138.9740  140.4492  162.8504 C.ar    1  UNL1        0.2835
      7 O         138.8354  138.9726  163.0749 O.2     1  UNL1       -0.2651
      8 N         138.4845  141.0627  161.5721 N.ar    1  UNL1       -0.2399
      9 C         138.6232  142.5393  161.3476 C.ar    1  UNL1        0.3353
     10 O         138.1336  143.1528  160.0693 O.2     1  UNL1       -0.2461
     11 N         139.2514  143.4024  162.4013 N.ar    1  UNL1       -0.2628
     12 C         139.3901  144.8790  162.1768 C.3     1  UNL1        0.1366
     13 N         141.3101  142.4166  167.2101 N.pl3   1  UNL1       -0.2781
     14 C         142.7920  142.2349  167.3548 C.3     1  UNL1        0.0937
     15 C         143.4373  142.3790  168.7012 C.3     1  UNL1        0.0229
     16 C         142.6007  142.7049  169.9029 C.3     1  UNL1        0.0190
     17 C         141.1188  142.8866  169.7581 C.3     1  UNL1        0.0710
     18 N         140.2822  143.2124  170.9598 N.3     1  UNL1       -0.3208
     19 C         140.4735  142.7424  168.4118 C.3     1  UNL1        0.1089
     20 H         140.8800  143.2724  171.7841 H       1  UNL1        0.1189
     21 H         139.5855  142.4804  171.0976 H       1  UNL1        0.1189
     22 C         140.2407  139.6333  165.8835 C.3     1  UNL1        0.1854
     23 C         136.5894  137.8764  167.8411 C.3     1  UNL1        0.0900
     24 C         137.8065  138.4621  167.1886 C.1     1  UNL1       -0.0881
     25 C         139.0237  139.0477  166.5360 C.1     1  UNL1       -0.0656
     26 C         137.8563  140.1995  160.5184 C.3     1  UNL1        0.1791
     27 C         138.6380  139.8197  159.2958 C.ar    1  UNL1        0.1617
     28 N         138.0899  140.1191  157.9321 N.ar    1  UNL1       -0.2330
     29 C         138.8716  139.7393  156.7095 C.ar    1  UNL1        0.0622
     30 C         138.3234  140.0387  155.3458 C.3     1  UNL1        0.0522
     31 C         140.2015  139.0599  156.8507 C.ar    1  UNL1        0.0313
     32 C         140.9832  138.6801  155.6282 C.ar    1  UNL1        0.0027
     33 C         142.3131  138.0008  155.7695 C.ar    1  UNL1        0.0001
     34 C         142.8612  137.7013  157.1332 C.ar    1  UNL1        0.0015
     35 C         142.0795  138.0812  158.3557 C.ar    1  UNL1        0.0192
     36 C         140.7497  138.7605  158.2145 C.ar    1  UNL1        0.0838
     37 N         139.9679  139.1404  159.4371 N.ar    1  UNL1       -0.2287
@<TRIPOS>BOND
     1    23    24    1
     2    24    25    3
     3    25    22    1
     4    22     1    1
     5     1     2   ar
     6     2    13    1
     7    13    14    1
     8    14    15    1
     9    15    16    1
    10    16    17    1
    11    17    18    1
    12    17    19    1
    13     2     3   ar
    14     3     4   ar
    15     4     5   ar
    16     5     6   ar
    17     6     7    2
    18     6     8   ar
    19     8    26    1
    20    26    27    1
    21    27    28   ar
    22    28    29   ar
    23    29    30    1
    24    29    31   ar
    25    31    32   ar
    26    32    33   ar
    27    33    34   ar
    28    34    35   ar
    29    35    36   ar
    30    36    37   ar
    31     8     9   ar
    32     9    10    2
    33     9    11   ar
    34    11    12    1
    35     5     1   ar
    36    37    27   ar
    37    19    13    1
    38    11     4   ar
    39    36    31   ar
    40    18    20    1
    41    18    21    1
@<TRIPOS>MOLECULE
*****
 37 41 0 0 0
SMALL
GASTEIGER

@<TRIPOS>ATOM
      1 N         141.9693  141.4397  165.2961 N.ar    1  UNL1       -0.2823
      2 C         140.7693  142.0004  166.0002 C.ar    1  UNL1        0.2034
      3 N         140.2114  143.1072  165.1553 N.ar    1  UNL1       -0.1958
      4 C         141.0665  143.2305  163.9292 C.ar    1  UNL1        0.1708
      5 C         142.1530  142.2000  164.0162 C.ar    1  UNL1        0.1544
      6 C         143.1692  142.0870  162.9187 C.ar    1  UNL1        0.2835
      7 O         144.2557  141.0565  163.0057 O.2     1  UNL1       -0.2651
      8 N         143.0990  143.0046  161.7342 N.ar    1  UNL1       -0.2399
      9 C         142.0125  144.0352  161.6471 C.ar    1  UNL1        0.3353
     10 O         141.9422  144.9528  160.4626 O.2     1  UNL1       -0.2461
     11 N         140.9963  144.1481  162.7447 N.ar    1  UNL1       -0.2628
     12 C         139.9098  145.1786  162.6577 C.3     1  UNL1        0.1366
     13 N         140.2231  141.5358  167.3177 N.pl3   1  UNL1       -0.2781
     14 C         139.4128  140.2757  167.3914 C.3     1  UNL1        0.0937
     15 C         138.8666  139.8112  168.7089 C.3     1  UNL1        0.0229
     16 C         139.1308  140.6068  169.9528 C.3     1  UNL1        0.0190
     17 C         139.9412  141.8669  169.8791 C.3     1  UNL1        0.0710
     18 N         140.2054  142.6625  171.1230 N.3     1  UNL1       -0.3208
     19 C         140.4873  142.3314  168.5616 C.3     1  UNL1        0.1089
     20 H         139.7632  142.2044  171.9199 H       1  UNL1        0.1189
     21 H         139.8214  143.6011  171.0142 H       1  UNL1        0.1189
     22 C         142.8338  140.3161  165.7860 C.3     1  UNL1        0.1854
     23 C         142.5422  138.9536  170.0649 C.3     1  UNL1        0.0900
     24 C         142.6394  139.4077  168.6386 C.1     1  UNL1       -0.0881
     25 C         142.7367  139.8619  167.2122 C.1     1  UNL1       -0.0656
     26 C         144.1152  142.8917  160.6367 C.3     1  UNL1        0.1791
     27 C         143.9368  141.8716  159.5514 C.ar    1  UNL1        0.1617
     28 N         142.8536  140.8399  159.6626 N.ar    1  UNL1       -0.2330
     29 C         142.6752  139.8198  158.5774 C.ar    1  UNL1        0.0622
     30 C         141.5920  138.7882  158.6886 C.3     1  UNL1        0.0522
     31 C         143.5800  139.8314  157.3810 C.ar    1  UNL1        0.0313
     32 C         143.4016  138.8114  156.2959 C.ar    1  UNL1        0.0027
     33 C         144.3064  138.8230  155.0996 C.ar    1  UNL1        0.0001
     34 C         145.3895  139.8547  154.9884 C.ar    1  UNL1        0.0015
     35 C         145.5679  140.8747  156.0735 C.ar    1  UNL1        0.0192
     36 C         144.6632  140.8631  157.2699 C.ar    1  UNL1        0.0838
     37 N         144.8416  141.8832  158.3551 N.ar    1  UNL1       -0.2287
@<TRIPOS>BOND
     1    23    24    1
     2    24    25    3
     3    25    22    1
     4    22     1    1
     5     1     2   ar
     6     2    13    1
     7    13    14    1
     8    14    15    1
     9    15    16    1
    10    16    17    1
    11    17    18    1
    12    17    19    1
    13     2     3   ar
    14     3     4   ar
    15     4     5   ar
    16     5     6   ar
    17     6     7    2
    18     6     8   ar
    19     8    26    1
    20    26    27    1
    21    27    28   ar
    22    28    29   ar
    23    29    30    1
    24    29    31   ar
    25    31    32   ar
    26    32    33   ar
    27    33    34   ar
    28    34    35   ar
    29    35    36   ar
    30    36    37   ar
    31     8     9   ar
    32     9    10    2
    33     9    11   ar
    34    11    12    1
    35     5     1   ar
    36    37    27   ar
    37    19    13    1
    38    11     4   ar
    39    36    31   ar
    40    18    20    1
    41    18    21    1
