@<TRIPOS>MOLECULE
*****
 34 38 0 0 0
SMALL
GASTEIGER

@<TRIPOS>ATOM
      1 C         139.1087  141.3896  159.4729 C.2     1  UNL1        0.2686
      2 O         139.0865  142.6794  158.7076 O.2     1  UNL1       -0.2682
      3 N         138.5159  141.3239  160.8493 N.am    1  UNL1       -0.2707
      4 C         142.5987  137.6671  158.1149 C.3     1  UNL1        0.1321
      5 N         141.3278  138.4543  158.2378 N.ar    1  UNL1       -0.3057
      6 C         140.0120  138.1087  157.6059 C.ar    1  UNL1        0.1787
      7 N         139.0205  139.1662  157.9917 N.ar    1  UNL1       -0.2192
      8 C         139.7236  140.1653  158.8620 C.ar    1  UNL1        0.1535
      9 C         141.1496  139.7255  159.0141 C.ar    1  UNL1        0.1012
     10 C         137.9010  142.5480  161.4602 C.3     1  UNL1        0.1206
     11 C         138.5838  143.2398  162.6028 C.ar    1  UNL1        0.0007
     12 C         137.8301  143.5176  163.8696 C.ar    1  UNL1       -0.0024
     13 C         138.5129  144.2093  165.0121 C.ar    1  UNL1        0.0028
     14 C         139.9493  144.6232  164.8878 C.ar    1  UNL1        0.0372
     15 C         140.7029  144.3453  163.6210 C.ar    1  UNL1        0.1465
     16 C         140.0202  143.6536  162.4785 C.ar    1  UNL1        0.0346
     17 O         142.1394  144.7592  163.4967 O.3     1  UNL1       -0.4045
     18 C         143.1920  144.0691  164.3127 C.3     1  UNL1        0.5753
     19 F         144.2447  143.3790  165.1286 F       1  UNL1       -0.1328
     20 F         142.4038  142.7944  164.2514 F       1  UNL1       -0.1328
     21 F         143.9801  145.3438  164.3739 F       1  UNL1       -0.1328
     22 C         138.5380  140.0340  161.6146 C.3     1  UNL1        0.0941
     23 C         138.9014  140.0316  163.0700 C.3     1  UNL1        0.0226
     24 C         138.4942  139.9354  164.5104 C.3     1  UNL1        0.0191
     25 C         138.3936  139.8749  166.0058 C.3     1  UNL1        0.0721
     26 N         139.7753  140.0259  166.5698 N.3     1  UNL1       -0.2727
     27 C         140.7298  140.1796  165.4229 C.3     1  UNL1        0.0721
     28 C         139.9381  140.1237  164.1501 C.3     1  UNL1        0.0191
     29 C         140.1387  140.0235  168.0251 C.3     1  UNL1        0.0720
     30 C         140.1300  141.3063  168.8024 C.3     1  UNL1        0.0160
     31 C         140.6661  142.6259  168.3321 C.3     1  UNL1        0.0014
     32 C         140.4510  143.6299  169.4256 C.3     1  UNL1        0.0000
     33 C         139.7819  142.9308  170.5717 C.3     1  UNL1        0.0000
     34 C         139.5836  141.4947  170.1866 C.3     1  UNL1        0.0014
@<TRIPOS>BOND
     1     4     5    1
     2     5     6   ar
     3     6     7   ar
     4     7     8   ar
     5     8     1    1
     6     1     2    2
     7     1     3   am
     8     3    10    1
     9    10    11    1
    10    11    12   ar
    11    12    13   ar
    12    13    14   ar
    13    14    15   ar
    14    15    17    1
    15    17    18    1
    16    18    19    1
    17    18    20    1
    18    18    21    1
    19    15    16   ar
    20     3    22    1
    21    23    22    1
    22    23    24    1
    23    24    25    1
    24    25    26    1
    25    26    29    1
    26    29    30    1
    27    30    31    1
    28    31    32    1
    29    32    33    1
    30    33    34    1
    31    26    27    1
    32    28    27    1
    33     8     9   ar
    34     9     5   ar
    35    16    11   ar
    36    28    23    1
    37    28    24    1
    38    34    30    1
@<TRIPOS>MOLECULE
*****
 34 38 0 0 0
SMALL
GASTEIGER

@<TRIPOS>ATOM
      1 C         141.4488  143.5133  159.7811 C.2     1  UNL1        0.2686
      2 O         140.1548  143.6646  159.0378 O.2     1  UNL1       -0.2682
      3 N         141.6459  144.2123  161.0936 N.am    1  UNL1       -0.2707
      4 C         145.6792  141.9492  157.0356 C.3     1  UNL1        0.1321
      5 N         144.4903  141.9441  157.9500 N.ar    1  UNL1       -0.3057
      6 C         143.9771  140.7651  158.7226 C.ar    1  UNL1        0.1787
      7 N         142.7754  141.2094  159.5025 N.ar    1  UNL1       -0.2192
      8 C         142.5457  142.6630  159.2121 C.ar    1  UNL1        0.1535
      9 C         143.6055  143.1171  158.2526 C.ar    1  UNL1        0.1012
     10 C         140.5491  145.0626  161.6627 C.3     1  UNL1        0.1206
     11 C         139.5699  144.4725  162.6339 C.ar    1  UNL1        0.0007
     12 C         139.4056  145.0798  163.9956 C.ar    1  UNL1       -0.0024
     13 C         138.4265  144.4898  164.9667 C.ar    1  UNL1        0.0028
     14 C         137.6116  143.2925  164.5762 C.ar    1  UNL1        0.0372
     15 C         137.7759  142.6852  163.2145 C.ar    1  UNL1        0.1465
     16 C         138.7551  143.2752  162.2434 C.ar    1  UNL1        0.0346
     17 O         136.9611  141.4879  162.8239 O.3     1  UNL1       -0.4045
     18 C         137.6437  140.2047  162.4532 C.3     1  UNL1        0.5753
     19 F         138.3263  138.9215  162.0823 F       1  UNL1       -0.1328
     20 F         137.8831  139.9126  163.9048 F       1  UNL1       -0.1328
     21 F         137.4042  140.4968  161.0015 F       1  UNL1       -0.1328
     22 C         142.9400  144.0609  161.8370 C.3     1  UNL1        0.0941
     23 C         142.9360  143.5921  163.2618 C.3     1  UNL1        0.0226
     24 C         142.2071  143.0059  164.4344 C.3     1  UNL1        0.0191
     25 C         141.7549  142.4487  165.7517 C.3     1  UNL1        0.0721
     26 N         142.9265  142.4644  166.6883 N.3     1  UNL1       -0.2727
     27 C         144.1026  143.0314  165.9500 C.3     1  UNL1        0.0721
     28 C         143.6581  143.3660  164.5570 C.3     1  UNL1        0.0191
     29 C         142.9225  141.9955  168.1131 C.3     1  UNL1        0.0720
     30 C         141.6625  142.0696  168.9236 C.3     1  UNL1        0.0160
     31 C         141.2061  143.2433  169.7386 C.3     1  UNL1        0.0014
     32 C         139.8992  142.8822  170.3801 C.3     1  UNL1        0.0000
     33 C         139.5479  141.4852  169.9615 C.3     1  UNL1        0.0000
     34 C         140.6376  140.9831  169.0614 C.3     1  UNL1        0.0014
@<TRIPOS>BOND
     1     4     5    1
     2     5     6   ar
     3     6     7   ar
     4     7     8   ar
     5     8     1    1
     6     1     2    2
     7     1     3   am
     8     3    10    1
     9    10    11    1
    10    11    12   ar
    11    12    13   ar
    12    13    14   ar
    13    14    15   ar
    14    15    17    1
    15    17    18    1
    16    18    19    1
    17    18    20    1
    18    18    21    1
    19    15    16   ar
    20     3    22    1
    21    23    22    1
    22    23    24    1
    23    24    25    1
    24    25    26    1
    25    26    29    1
    26    29    30    1
    27    30    31    1
    28    31    32    1
    29    32    33    1
    30    33    34    1
    31    26    27    1
    32    28    27    1
    33     8     9   ar
    34     9     5   ar
    35    16    11   ar
    36    28    23    1
    37    28    24    1
    38    34    30    1
@<TRIPOS>MOLECULE
*****
 34 38 0 0 0
SMALL
GASTEIGER

@<TRIPOS>ATOM
      1 C         139.5851  141.5338  159.8614 C.2     1  UNL1        0.2686
      2 O         138.2583  141.0478  159.3581 O.2     1  UNL1       -0.2682
      3 N         140.4894  140.6021  160.6124 N.am    1  UNL1       -0.2707
      4 C         141.7357  145.8196  157.6506 C.3     1  UNL1        0.1321
      5 N         140.9962  144.9216  158.5974 N.ar    1  UNL1       -0.3057
      6 C         140.3195  145.3452  159.8674 C.ar    1  UNL1        0.1787
      7 N         139.7086  144.1277  160.4954 N.ar    1  UNL1       -0.2192
      8 C         140.0076  142.9517  159.6137 C.ar    1  UNL1        0.1535
      9 C         140.8034  143.4423  158.4406 C.ar    1  UNL1        0.1012
     10 C         140.0670  139.1843  160.8602 C.3     1  UNL1        0.1206
     11 C         140.0479  138.6408  162.2582 C.ar    1  UNL1        0.0007
     12 C         141.0642  137.6216  162.6805 C.ar    1  UNL1       -0.0024
     13 C         141.0451  137.0781  164.0784 C.ar    1  UNL1        0.0028
     14 C         140.0097  137.5538  165.0540 C.ar    1  UNL1        0.0372
     15 C         138.9934  138.5729  164.6316 C.ar    1  UNL1        0.1465
     16 C         139.0125  139.1164  163.2337 C.ar    1  UNL1        0.0346
     17 O         137.9579  139.0485  165.6071 O.3     1  UNL1       -0.4045
     18 C         138.3489  139.3681  167.0196 C.3     1  UNL1        0.5753
     19 F         138.7399  139.6876  168.4321 F       1  UNL1       -0.1328
     20 F         139.3393  140.3764  166.5173 F       1  UNL1       -0.1328
     21 F         137.3586  138.3597  167.5218 F       1  UNL1       -0.1328
     22 C         141.8163  141.0882  161.1158 C.3     1  UNL1        0.0941
     23 C         142.0034  141.3807  162.5750 C.3     1  UNL1        0.0226
     24 C         142.8004  141.2348  163.8373 C.3     1  UNL1        0.0191
     25 C         143.3708  141.2663  165.2243 C.3     1  UNL1        0.0721
     26 N         142.4535  142.0843  166.0843 N.3     1  UNL1       -0.2727
     27 C         141.3162  142.5583  165.2288 C.3     1  UNL1        0.0721
     28 C         141.5306  142.0333  163.8401 C.3     1  UNL1        0.0191
     29 C         142.6406  142.3768  167.5435 C.3     1  UNL1        0.0720
     30 C         142.6426  141.2549  168.5392 C.3     1  UNL1        0.0160
     31 C         143.3057  141.2712  169.8845 C.3     1  UNL1        0.0014
     32 C         143.0547  139.9461  170.5411 C.3     1  UNL1        0.0000
     33 C         142.2364  139.1109  169.6015 C.3     1  UNL1        0.0000
     34 C         141.9818  139.9198  168.3642 C.3     1  UNL1        0.0014
@<TRIPOS>BOND
     1     4     5    1
     2     5     6   ar
     3     6     7   ar
     4     7     8   ar
     5     8     1    1
     6     1     2    2
     7     1     3   am
     8     3    10    1
     9    10    11    1
    10    11    12   ar
    11    12    13   ar
    12    13    14   ar
    13    14    15   ar
    14    15    17    1
    15    17    18    1
    16    18    19    1
    17    18    20    1
    18    18    21    1
    19    15    16   ar
    20     3    22    1
    21    23    22    1
    22    23    24    1
    23    24    25    1
    24    25    26    1
    25    26    29    1
    26    29    30    1
    27    30    31    1
    28    31    32    1
    29    32    33    1
    30    33    34    1
    31    26    27    1
    32    28    27    1
    33     8     9   ar
    34     9     5   ar
    35    16    11   ar
    36    28    23    1
    37    28    24    1
    38    34    30    1
@<TRIPOS>MOLECULE
*****
 34 38 0 0 0
SMALL
GASTEIGER

@<TRIPOS>ATOM
      1 C         139.6374  139.7286  167.9908 C.2     1  UNL1        0.2686
      2 O         138.2416  139.5331  168.5039 O.2     1  UNL1       -0.2682
      3 N         139.9695  139.3821  166.5697 N.am    1  UNL1       -0.2707
      4 C         142.9168  143.0468  170.4639 C.3     1  UNL1        0.1321
      5 N         142.2087  141.7958  170.0357 N.ar    1  UNL1       -0.3057
      6 C         142.4681  140.4134  170.5568 C.ar    1  UNL1        0.1787
      7 N         141.5365  139.4707  169.8543 N.ar    1  UNL1       -0.2192
      8 C         140.7013  140.2706  168.8989 C.ar    1  UNL1        0.1535
      9 C         141.1167  141.7076  169.0109 C.ar    1  UNL1        0.1012
     10 C         138.9058  138.8402  165.6616 C.3     1  UNL1        0.1206
     11 C         138.5544  139.5697  164.3989 C.ar    1  UNL1        0.0007
     12 C         138.6621  138.8725  163.0752 C.ar    1  UNL1       -0.0024
     13 C         138.3108  139.6020  161.8125 C.ar    1  UNL1        0.0028
     14 C         137.8518  141.0288  161.8736 C.ar    1  UNL1        0.0372
     15 C         137.7441  141.7260  163.1973 C.ar    1  UNL1        0.1465
     16 C         138.0954  140.9964  164.4599 C.ar    1  UNL1        0.0346
     17 O         137.2851  143.1527  163.2584 O.3     1  UNL1       -0.4045
     18 C         138.1991  144.2122  163.7988 C.3     1  UNL1        0.5753
     19 F         139.1131  145.2717  164.3392 F       1  UNL1       -0.1328
     20 F         138.9636  144.2108  162.5083 F       1  UNL1       -0.1328
     21 F         137.4346  144.2135  165.0893 F       1  UNL1       -0.1328
     22 C         141.3655  139.5776  166.0566 C.3     1  UNL1        0.0941
     23 C         141.6248  140.5410  164.9365 C.3     1  UNL1        0.0226
     24 C         141.6941  141.9489  164.4239 C.3     1  UNL1        0.0191
     25 C         141.8448  143.2198  163.6414 C.3     1  UNL1        0.0721
     26 N         142.2483  142.8577  162.2427 N.3     1  UNL1       -0.2727
     27 C         142.3470  141.3632  162.1609 C.3     1  UNL1        0.0721
     28 C         142.0045  140.8016  163.5090 C.3     1  UNL1        0.0191
     29 C         142.5076  143.8211  161.1226 C.3     1  UNL1        0.0720
     30 C         141.4732  144.0272  160.0560 C.3     1  UNL1        0.0160
     31 C         141.3708  145.2142  159.1447 C.3     1  UNL1        0.0014
     32 C         140.1939  145.0031  158.2390 C.3     1  UNL1        0.0000
     33 C         139.5690  143.6855  158.5905 C.3     1  UNL1        0.0000
     34 C         140.3597  143.0824  159.7135 C.3     1  UNL1        0.0014
@<TRIPOS>BOND
     1     4     5    1
     2     5     6   ar
     3     6     7   ar
     4     7     8   ar
     5     8     1    1
     6     1     2    2
     7     1     3   am
     8     3    10    1
     9    10    11    1
    10    11    12   ar
    11    12    13   ar
    12    13    14   ar
    13    14    15   ar
    14    15    17    1
    15    17    18    1
    16    18    19    1
    17    18    20    1
    18    18    21    1
    19    15    16   ar
    20     3    22    1
    21    23    22    1
    22    23    24    1
    23    24    25    1
    24    25    26    1
    25    26    29    1
    26    29    30    1
    27    30    31    1
    28    31    32    1
    29    32    33    1
    30    33    34    1
    31    26    27    1
    32    28    27    1
    33     8     9   ar
    34     9     5   ar
    35    16    11   ar
    36    28    23    1
    37    28    24    1
    38    34    30    1
@<TRIPOS>MOLECULE
*****
 34 38 0 0 0
SMALL
GASTEIGER

@<TRIPOS>ATOM
      1 C         141.1093  139.1026  160.5689 C.2     1  UNL1        0.2686
      2 O         139.7882  138.9260  159.8809 O.2     1  UNL1       -0.2682
      3 N         141.3440  138.4800  161.9133 N.am    1  UNL1       -0.2707
      4 C         144.8308  140.6771  157.1700 C.3     1  UNL1        0.1321
      5 N         143.9065  140.6255  158.3502 N.ar    1  UNL1       -0.3057
      6 C         143.8294  141.6375  159.4548 C.ar    1  UNL1        0.1787
      7 N         142.7722  141.1902  160.4203 N.ar    1  UNL1       -0.2192
      8 C         142.1959  139.9018  159.9126 C.ar    1  UNL1        0.1535
      9 C         142.8969  139.5527  158.6332 C.ar    1  UNL1        0.1012
     10 C         140.2575  137.6809  162.5697 C.3     1  UNL1        0.1206
     11 C         139.5066  138.2519  163.7360 C.ar    1  UNL1        0.0007
     12 C         139.0711  137.3571  164.8583 C.ar    1  UNL1       -0.0024
     13 C         138.3203  137.9282  166.0245 C.ar    1  UNL1        0.0028
     14 C         138.0049  139.3940  166.0684 C.ar    1  UNL1        0.0372
     15 C         138.4404  140.2887  164.9460 C.ar    1  UNL1        0.1465
     16 C         139.1912  139.7177  163.7798 C.ar    1  UNL1        0.0346
     17 O         138.1250  141.7546  164.9899 O.3     1  UNL1       -0.4045
     18 C         139.2216  142.7510  165.2231 C.3     1  UNL1        0.5753
     19 F         140.3183  143.7476  165.4564 F       1  UNL1       -0.1328
     20 F         139.8351  141.8373  166.2423 F       1  UNL1       -0.1328
     21 F         138.6081  143.6647  164.2040 F       1  UNL1       -0.1328
     22 C         142.6652  138.6566  162.6013 C.3     1  UNL1        0.0941
     23 C         142.7612  139.5054  163.8343 C.3     1  UNL1        0.0226
     24 C         143.0491  140.8272  164.4822 C.3     1  UNL1        0.0191
     25 C         143.2670  141.9972  165.3954 C.3     1  UNL1        0.0721
     26 N         142.9920  141.5467  166.7995 N.3     1  UNL1       -0.2727
     27 C         142.6042  140.0984  166.7541 C.3     1  UNL1        0.0721
     28 C         142.6395  139.6537  165.3219 C.3     1  UNL1        0.0191
     29 C         143.0880  142.3955  168.0325 C.3     1  UNL1        0.0720
     30 C         142.0138  142.3250  169.0771 C.3     1  UNL1        0.0160
     31 C         142.0319  141.4616  170.3035 C.3     1  UNL1        0.0014
     32 C         140.7622  141.7085  171.0630 C.3     1  UNL1        0.0000
     33 C         139.9594  142.7246  170.3059 C.3     1  UNL1        0.0000
     34 C         140.7329  143.1055  169.0786 C.3     1  UNL1        0.0014
@<TRIPOS>BOND
     1     4     5    1
     2     5     6   ar
     3     6     7   ar
     4     7     8   ar
     5     8     1    1
     6     1     2    2
     7     1     3   am
     8     3    10    1
     9    10    11    1
    10    11    12   ar
    11    12    13   ar
    12    13    14   ar
    13    14    15   ar
    14    15    17    1
    15    17    18    1
    16    18    19    1
    17    18    20    1
    18    18    21    1
    19    15    16   ar
    20     3    22    1
    21    23    22    1
    22    23    24    1
    23    24    25    1
    24    25    26    1
    25    26    29    1
    26    29    30    1
    27    30    31    1
    28    31    32    1
    29    32    33    1
    30    33    34    1
    31    26    27    1
    32    28    27    1
    33     8     9   ar
    34     9     5   ar
    35    16    11   ar
    36    28    23    1
    37    28    24    1
    38    34    30    1
@<TRIPOS>MOLECULE
*****
 34 38 0 0 0
SMALL
GASTEIGER

@<TRIPOS>ATOM
      1 C         143.4649  141.0144  159.8978 C.2     1  UNL1        0.2686
      2 O         143.6375  142.3369  159.2115 O.2     1  UNL1       -0.2682
      3 N         143.9422  140.8334  161.3082 N.am    1  UNL1       -0.2707
      4 C         139.8334  137.9079  157.6521 C.3     1  UNL1        0.1321
      5 N         141.1457  138.4449  158.1414 N.ar    1  UNL1       -0.3057
      6 C         142.4839  137.7872  157.9771 C.ar    1  UNL1        0.1787
      7 N         143.5155  138.6697  158.6151 N.ar    1  UNL1       -0.2192
      8 C         142.8150  139.8727  159.1736 C.ar    1  UNL1        0.1535
      9 C         141.3504  139.7339  158.8809 C.ar    1  UNL1        0.1012
     10 C         144.5921  141.9749  162.0324 C.3     1  UNL1        0.1206
     11 C         143.7474  143.0515  162.6469 C.ar    1  UNL1        0.0007
     12 C         144.3500  144.3878  162.9648 C.ar    1  UNL1       -0.0024
     13 C         143.5054  145.4643  163.5793 C.ar    1  UNL1        0.0028
     14 C         142.0581  145.2045  163.8759 C.ar    1  UNL1        0.0372
     15 C         141.4555  143.8682  163.5580 C.ar    1  UNL1        0.1465
     16 C         142.3002  142.7917  162.9435 C.ar    1  UNL1        0.0346
     17 O         140.0083  143.6084  163.8546 O.3     1  UNL1       -0.4045
     18 C         139.2761  144.4759  164.8350 C.3     1  UNL1        0.5753
     19 F         138.5439  145.3436  165.8154 F       1  UNL1       -0.1328
     20 F         139.8932  143.7139  165.9702 F       1  UNL1       -0.1328
     21 F         138.6591  145.2379  163.6999 F       1  UNL1       -0.1328
     22 C         143.7695  139.5107  161.9946 C.3     1  UNL1        0.0941
     23 C         143.4692  139.4615  163.4633 C.3     1  UNL1        0.0226
     24 C         142.7485  140.0061  164.6608 C.3     1  UNL1        0.0191
     25 C         142.1781  140.3223  166.0117 C.3     1  UNL1        0.0721
     26 N         142.7468  139.3432  166.9956 N.3     1  UNL1       -0.2727
     27 C         143.6685  138.4219  166.2528 C.3     1  UNL1        0.0721
     28 C         143.6696  138.8317  164.8098 C.3     1  UNL1        0.0191
     29 C         142.4464  139.2940  168.4644 C.3     1  UNL1        0.0720
     30 C         141.5316  140.3125  169.0774 C.3     1  UNL1        0.0160
     31 C         141.9092  141.7067  169.4818 C.3     1  UNL1        0.0014
     32 C         140.6896  142.3715  170.0479 C.3     1  UNL1        0.0000
     33 C         139.5582  141.3881  169.9934 C.3     1  UNL1        0.0000
     34 C         140.0786  140.1155  169.3936 C.3     1  UNL1        0.0014
@<TRIPOS>BOND
     1     4     5    1
     2     5     6   ar
     3     6     7   ar
     4     7     8   ar
     5     8     1    1
     6     1     2    2
     7     1     3   am
     8     3    10    1
     9    10    11    1
    10    11    12   ar
    11    12    13   ar
    12    13    14   ar
    13    14    15   ar
    14    15    17    1
    15    17    18    1
    16    18    19    1
    17    18    20    1
    18    18    21    1
    19    15    16   ar
    20     3    22    1
    21    23    22    1
    22    23    24    1
    23    24    25    1
    24    25    26    1
    25    26    29    1
    26    29    30    1
    27    30    31    1
    28    31    32    1
    29    32    33    1
    30    33    34    1
    31    26    27    1
    32    28    27    1
    33     8     9   ar
    34     9     5   ar
    35    16    11   ar
    36    28    23    1
    37    28    24    1
    38    34    30    1
@<TRIPOS>MOLECULE
*****
 34 38 0 0 0
SMALL
GASTEIGER

@<TRIPOS>ATOM
      1 C         143.6397  143.0043  159.1409 C.2     1  UNL1        0.2686
      2 O         144.6426  142.2442  158.3245 O.2     1  UNL1       -0.2682
      3 N         143.7396  143.0086  160.6376 N.am    1  UNL1       -0.2707
      4 C         139.1411  144.1370  156.6189 C.3     1  UNL1        0.1321
      5 N         140.4691  144.2806  157.3014 N.ar    1  UNL1       -0.3057
      6 C         141.2105  145.5651  157.5262 C.ar    1  UNL1        0.1787
      7 N         142.4885  145.2433  158.2427 N.ar    1  UNL1       -0.2192
      8 C         142.5369  143.7600  158.4606 C.ar    1  UNL1        0.1535
      9 C         141.2888  143.1650  157.8789 C.ar    1  UNL1        0.1012
     10 C         144.8423  142.2529  161.3178 C.3     1  UNL1        0.1206
     11 C         144.5143  141.1210  162.2460 C.ar    1  UNL1        0.0007
     12 C         145.0540  141.1183  163.6455 C.ar    1  UNL1       -0.0024
     13 C         144.7260  139.9864  164.5735 C.ar    1  UNL1        0.0028
     14 C         143.8583  138.8573  164.1020 C.ar    1  UNL1        0.0372
     15 C         143.3187  138.8601  162.7024 C.ar    1  UNL1        0.1465
     16 C         143.6467  139.9919  161.7744 C.ar    1  UNL1        0.0346
     17 O         142.4510  137.7310  162.2309 O.3     1  UNL1       -0.4045
     18 C         141.0105  137.6689  162.6445 C.3     1  UNL1        0.5753
     19 F         139.5699  137.6068  163.0580 F       1  UNL1       -0.1328
     20 F         141.3633  136.6918  163.7265 F       1  UNL1       -0.1328
     21 F         140.6578  138.6459  161.5624 F       1  UNL1       -0.1328
     22 C         142.7366  143.7687  161.4539 C.3     1  UNL1        0.0941
     23 C         142.0592  143.1060  162.6167 C.3     1  UNL1        0.0226
     24 C         141.0857  142.0975  163.1505 C.3     1  UNL1        0.0191
     25 C         140.2023  141.1985  163.9639 C.3     1  UNL1        0.0721
     26 N         140.4301  141.5124  165.4129 N.3     1  UNL1       -0.2727
     27 C         141.4542  142.6053  165.4950 C.3     1  UNL1        0.0721
     28 C         141.8594  142.9669  164.0968 C.3     1  UNL1        0.0191
     29 C         139.7526  140.8498  166.5757 C.3     1  UNL1        0.0720
     30 C         140.5691  140.3203  167.7172 C.3     1  UNL1        0.0160
     31 C         140.1480  140.2755  169.1562 C.3     1  UNL1        0.0014
     32 C         141.2687  139.6703  169.9485 C.3     1  UNL1        0.0000
     33 C         142.3824  139.3410  168.9991 C.3     1  UNL1        0.0000
     34 C         141.9500  139.7428  167.6201 C.3     1  UNL1        0.0014
@<TRIPOS>BOND
     1     4     5    1
     2     5     6   ar
     3     6     7   ar
     4     7     8   ar
     5     8     1    1
     6     1     2    2
     7     1     3   am
     8     3    10    1
     9    10    11    1
    10    11    12   ar
    11    12    13   ar
    12    13    14   ar
    13    14    15   ar
    14    15    17    1
    15    17    18    1
    16    18    19    1
    17    18    20    1
    18    18    21    1
    19    15    16   ar
    20     3    22    1
    21    23    22    1
    22    23    24    1
    23    24    25    1
    24    25    26    1
    25    26    29    1
    26    29    30    1
    27    30    31    1
    28    31    32    1
    29    32    33    1
    30    33    34    1
    31    26    27    1
    32    28    27    1
    33     8     9   ar
    34     9     5   ar
    35    16    11   ar
    36    28    23    1
    37    28    24    1
    38    34    30    1
@<TRIPOS>MOLECULE
*****
 34 38 0 0 0
SMALL
GASTEIGER

@<TRIPOS>ATOM
      1 C         141.1347  139.3102  157.2076 C.2     1  UNL1        0.2686
      2 O         141.6858  140.4615  156.4196 O.2     1  UNL1       -0.2682
      3 N         140.0457  139.5422  158.2127 N.am    1  UNL1       -0.2707
      4 C         141.6954  134.3553  155.4711 C.3     1  UNL1        0.1321
      5 N         141.9304  135.6494  156.1923 N.ar    1  UNL1       -0.3057
      6 C         143.0705  135.9471  157.1205 C.ar    1  UNL1        0.1787
      7 N         142.9112  137.3547  157.6138 N.ar    1  UNL1       -0.2192
      8 C         141.6727  137.9269  156.9905 C.ar    1  UNL1        0.1535
      9 C         141.0664  136.8730  156.1119 C.ar    1  UNL1        0.1012
     10 C         139.5078  140.9255  158.4298 C.3     1  UNL1        0.1206
     11 C         139.9439  141.7209  159.6245 C.ar    1  UNL1        0.0007
     12 C         141.3364  141.5671  160.1603 C.ar    1  UNL1       -0.0024
     13 C         141.7724  142.3625  161.3549 C.ar    1  UNL1        0.0028
     14 C         140.8159  143.3117  162.0138 C.ar    1  UNL1        0.0372
     15 C         139.4233  143.4654  161.4780 C.ar    1  UNL1        0.1465
     16 C         138.9873  142.6701  160.2834 C.ar    1  UNL1        0.0346
     17 O         138.4668  144.4146  162.1369 O.3     1  UNL1       -0.4045
     18 C         138.0293  144.1768  163.5518 C.3     1  UNL1        0.5753
     19 F         137.5917  143.9389  164.9668 F       1  UNL1       -0.1328
     20 F         138.8998  145.3085  164.0113 F       1  UNL1       -0.1328
     21 F         137.1587  143.0450  163.0924 F       1  UNL1       -0.1328
     22 C         139.4947  138.3909  159.0007 C.3     1  UNL1        0.0941
     23 C         139.2436  138.5409  160.4719 C.3     1  UNL1        0.0226
     24 C         139.5081  138.1133  161.8851 C.3     1  UNL1        0.0191
     25 C         139.5672  137.9114  163.3703 C.3     1  UNL1        0.0721
     26 N         138.6396  138.9017  164.0100 N.3     1  UNL1       -0.2727
     27 C         138.0074  139.7155  162.9201 C.3     1  UNL1        0.0721
     28 C         138.5441  139.2283  161.6069 C.3     1  UNL1        0.0191
     29 C         138.3885  139.0517  165.4812 C.3     1  UNL1        0.0720
     30 C         139.1400  140.0834  166.2689 C.3     1  UNL1        0.0160
     31 C         139.6537  141.3915  165.7444 C.3     1  UNL1        0.0014
     32 C         140.3409  142.1049  166.8708 C.3     1  UNL1        0.0000
     33 C         140.2520  141.2376  168.0915 C.3     1  UNL1        0.0000
     34 C         139.5098  139.9883  167.7195 C.3     1  UNL1        0.0014
@<TRIPOS>BOND
     1     4     5    1
     2     5     6   ar
     3     6     7   ar
     4     7     8   ar
     5     8     1    1
     6     1     2    2
     7     1     3   am
     8     3    10    1
     9    10    11    1
    10    11    12   ar
    11    12    13   ar
    12    13    14   ar
    13    14    15   ar
    14    15    17    1
    15    17    18    1
    16    18    19    1
    17    18    20    1
    18    18    21    1
    19    15    16   ar
    20     3    22    1
    21    23    22    1
    22    23    24    1
    23    24    25    1
    24    25    26    1
    25    26    29    1
    26    29    30    1
    27    30    31    1
    28    31    32    1
    29    32    33    1
    30    33    34    1
    31    26    27    1
    32    28    27    1
    33     8     9   ar
    34     9     5   ar
    35    16    11   ar
    36    28    23    1
    37    28    24    1
    38    34    30    1
@<TRIPOS>MOLECULE
*****
 34 38 0 0 0
SMALL
GASTEIGER

@<TRIPOS>ATOM
      1 C         141.6103  139.1966  158.8958 C.2     1  UNL1        0.2686
      2 O         141.6066  137.7840  158.3915 O.2     1  UNL1       -0.2682
      3 N         140.7040  139.5928  160.0234 N.am    1  UNL1       -0.2707
      4 C         143.4922  142.9820  155.7318 C.3     1  UNL1        0.1321
      5 N         143.3853  141.9531  156.8181 N.ar    1  UNL1       -0.3057
      6 C         144.4561  141.6017  157.8081 C.ar    1  UNL1        0.1787
      7 N         143.9214  140.5264  158.7069 N.ar    1  UNL1       -0.2192
      8 C         142.5204  140.2132  158.2724 C.ar    1  UNL1        0.1535
      9 C         142.1890  141.0949  157.1050 C.ar    1  UNL1        0.1012
     10 C         139.7940  138.5764  160.6468 C.3     1  UNL1        0.1206
     11 C         139.9077  138.2649  162.1097 C.ar    1  UNL1        0.0007
     12 C         141.0312  137.4053  162.6084 C.ar    1  UNL1       -0.0024
     13 C         141.1449  137.0939  164.0713 C.ar    1  UNL1        0.0028
     14 C         140.1351  137.6421  165.0355 C.ar    1  UNL1        0.0372
     15 C         139.0116  138.5017  164.5368 C.ar    1  UNL1        0.1465
     16 C         138.8979  138.8131  163.0740 C.ar    1  UNL1        0.0346
     17 O         138.0017  139.0499  165.5011 O.3     1  UNL1       -0.4045
     18 C         138.3858  139.2965  166.9299 C.3     1  UNL1        0.5753
     19 F         138.7700  139.5431  168.3588 F       1  UNL1       -0.1328
     20 F         139.2797  140.4201  166.4957 F       1  UNL1       -0.1328
     21 F         137.4920  138.1729  167.3641 F       1  UNL1       -0.1328
     22 C         140.7077  141.0056  160.5277 C.3     1  UNL1        0.0941
     23 C         141.3030  141.3220  161.8677 C.3     1  UNL1        0.0226
     24 C         142.4820  141.3354  162.7949 C.3     1  UNL1        0.0191
     25 C         143.4583  141.4752  163.9251 C.3     1  UNL1        0.0721
     26 N         142.7347  142.0831  165.0901 N.3     1  UNL1       -0.2727
     27 C         141.3113  142.3188  164.6797 C.3     1  UNL1        0.0721
     28 C         141.1551  141.8568  163.2612 C.3     1  UNL1        0.0191
     29 C         143.3300  142.3995  166.4300 C.3     1  UNL1        0.0720
     30 C         142.9686  141.5697  167.6261 C.3     1  UNL1        0.0160
     31 C         143.0546  142.0042  169.0593 C.3     1  UNL1        0.0014
     32 C         142.5969  140.8628  169.9180 C.3     1  UNL1        0.0000
     33 C         142.2279  139.7227  169.0156 C.3     1  UNL1        0.0000
     34 C         142.4576  140.1597  167.5992 C.3     1  UNL1        0.0014
@<TRIPOS>BOND
     1     4     5    1
     2     5     6   ar
     3     6     7   ar
     4     7     8   ar
     5     8     1    1
     6     1     2    2
     7     1     3   am
     8     3    10    1
     9    10    11    1
    10    11    12   ar
    11    12    13   ar
    12    13    14   ar
    13    14    15   ar
    14    15    17    1
    15    17    18    1
    16    18    19    1
    17    18    20    1
    18    18    21    1
    19    15    16   ar
    20     3    22    1
    21    23    22    1
    22    23    24    1
    23    24    25    1
    24    25    26    1
    25    26    29    1
    26    29    30    1
    27    30    31    1
    28    31    32    1
    29    32    33    1
    30    33    34    1
    31    26    27    1
    32    28    27    1
    33     8     9   ar
    34     9     5   ar
    35    16    11   ar
    36    28    23    1
    37    28    24    1
    38    34    30    1
