@<TRIPOS>MOLECULE
*****
 30 33 0 0 0
SMALL
GASTEIGER

@<TRIPOS>ATOM
      1 C         140.9098  143.1120  164.6908 C.ar    1  UNL1        0.1143
      2 C         140.1909  144.2459  164.0219 C.ar    1  UNL1        0.0850
      3 CL        139.1444  145.1187  164.6490 Cl      1  UNL1       -0.0799
      4 C         140.7020  144.3538  162.6158 C.ar    1  UNL1        0.0574
      5 C         140.3588  145.2859  161.4919 C.ar    1  UNL1        0.0631
      6 CL        139.3240  146.3531  161.6920 Cl      1  UNL1       -0.0821
      7 C         141.0505  145.1507  160.1678 C.ar    1  UNL1        0.0353
      8 C         142.0854  144.0835  159.9676 C.ar    1  UNL1        0.1366
      9 N         142.4286  143.1514  161.0916 N.ar    1  UNL1       -0.2236
     10 C         141.7369  143.2865  162.4157 C.ar    1  UNL1        0.1460
     11 N         141.8653  142.5191  163.6981 N.ar    1  UNL1       -0.3061
     12 C         142.7873  141.3619  163.9445 C.3     1  UNL1        0.1031
     13 C         144.2704  141.5812  163.9905 C.3     1  UNL1        0.0255
     14 C         145.1925  140.4240  164.2370 C.3     1  UNL1        0.0191
     15 C         144.6313  139.0474  164.4374 C.3     1  UNL1        0.0687
     16 N         143.1482  138.8280  164.3914 N.3     1  UNL1       -0.2959
     17 C         142.2262  139.9852  164.1450 C.3     1  UNL1        0.0914
     18 H         142.8821  138.4257  165.2901 H       1  UNL1        0.1233
     19 C         142.7771  143.9484  158.6435 C.2     1  UNL1        0.2606
     20 N         142.7434  145.0810  157.6607 N.am    1  UNL1       -0.3241
     21 O         143.5025  142.6806  158.3022 O.2     1  UNL1       -0.2687
     22 H         142.2672  145.9131  157.8847 H       1  UNL1        0.1453
     23 H         143.1973  144.9924  156.7916 H       1  UNL1        0.1453
     24 C         140.5073  142.1917  167.5177 C.1     1  UNL1       -0.0820
     25 C         140.7086  142.6519  166.1043 C.1     1  UNL1       -0.0459
     26 C         140.5577  143.1268  169.4211 C.3     1  UNL1        0.0181
     27 C         140.3061  141.7316  168.9311 C.3     1  UNL1        0.1088
     28 C         140.0545  140.3364  168.4411 C.3     1  UNL1        0.1565
     29 O         139.8533  139.8762  169.8545 O.3     1  UNL1       -0.3516
     30 C         140.1049  141.2714  170.3445 C.3     1  UNL1        0.1565
@<TRIPOS>BOND
     1    26    27    1
     2    27    24    1
     3    24    25    3
     4    25     1    1
     5     1     2   ar
     6     2     3    1
     7     2     4   ar
     8     4     5   ar
     9     5     6    1
    10     5     7   ar
    11     7     8   ar
    12     8    19    1
    13    19    20   am
    14    19    21    2
    15     8     9   ar
    16     9    10   ar
    17    10    11   ar
    18    12    11    1
    19    12    13    1
    20    13    14    1
    21    14    15    1
    22    15    16    1
    23    16    17    1
    24    27    28    1
    25    28    29    1
    26    29    30    1
    27    30    27    1
    28    11     1   ar
    29    17    12    1
    30    10     4   ar
    31    20    22    1
    32    20    23    1
    33    16    18    1
@<TRIPOS>MOLECULE
*****
 30 33 0 0 0
SMALL
GASTEIGER

@<TRIPOS>ATOM
      1 C         141.8885  140.5894  164.8787 C.ar    1  UNL1        0.1143
      2 C         142.3811  139.7155  165.9938 C.ar    1  UNL1        0.0850
      3 CL        143.1502  138.4371  165.8382 Cl      1  UNL1       -0.0799
      4 C         141.9698  140.3444  167.2920 C.ar    1  UNL1        0.0574
      5 C         142.1788  139.9305  168.7185 C.ar    1  UNL1        0.0631
      6 CL        142.9257  138.6678  169.0313 Cl      1  UNL1       -0.0821
      7 C         141.6409  140.7792  169.8322 C.ar    1  UNL1        0.0353
      8 C         140.8940  142.0418  169.5194 C.ar    1  UNL1        0.1366
      9 N         140.6850  142.4558  168.0929 N.ar    1  UNL1       -0.2236
     10 C         141.2228  141.6070  166.9792 C.ar    1  UNL1        0.1460
     11 N         141.1726  141.7584  165.4877 N.ar    1  UNL1       -0.3061
     12 C         140.5209  142.8817  164.7370 C.3     1  UNL1        0.1031
     13 C         139.0768  142.7828  164.3440 C.3     1  UNL1        0.0255
     14 C         138.4251  143.9061  163.5933 C.3     1  UNL1        0.0191
     15 C         139.2176  145.1284  163.2356 C.3     1  UNL1        0.0687
     16 N         140.6618  145.2274  163.6286 N.3     1  UNL1       -0.2959
     17 C         141.3135  144.1041  164.3793 C.3     1  UNL1        0.0914
     18 H         140.7525  146.0611  164.2091 H       1  UNL1        0.1233
     19 C         140.3561  142.8906  170.6331 C.2     1  UNL1        0.2606
     20 N         139.9228  144.3003  170.3597 N.am    1  UNL1       -0.3241
     21 O         140.2516  142.3295  172.0203 O.2     1  UNL1       -0.2687
     22 H         139.9915  144.6686  169.4493 H       1  UNL1        0.1453
     23 H         139.5698  144.8573  171.0907 H       1  UNL1        0.1453
     24 C         142.2682  140.0873  161.9455 C.1     1  UNL1       -0.0820
     25 C         142.0783  140.3384  163.4121 C.1     1  UNL1       -0.0459
     26 C         141.0303  140.2218  160.2281 C.3     1  UNL1        0.0181
     27 C         142.4580  139.8363  160.4789 C.3     1  UNL1        0.1088
     28 C         143.8858  139.4508  160.7297 C.3     1  UNL1        0.1565
     29 O         144.0756  139.1998  159.2631 O.3     1  UNL1       -0.3516
     30 C         142.6479  139.5853  159.0123 C.3     1  UNL1        0.1565
@<TRIPOS>BOND
     1    26    27    1
     2    27    24    1
     3    24    25    3
     4    25     1    1
     5     1     2   ar
     6     2     3    1
     7     2     4   ar
     8     4     5   ar
     9     5     6    1
    10     5     7   ar
    11     7     8   ar
    12     8    19    1
    13    19    20   am
    14    19    21    2
    15     8     9   ar
    16     9    10   ar
    17    10    11   ar
    18    12    11    1
    19    12    13    1
    20    13    14    1
    21    14    15    1
    22    15    16    1
    23    16    17    1
    24    27    28    1
    25    28    29    1
    26    29    30    1
    27    30    27    1
    28    11     1   ar
    29    17    12    1
    30    10     4   ar
    31    20    22    1
    32    20    23    1
    33    16    18    1
@<TRIPOS>MOLECULE
*****
 30 33 0 0 0
SMALL
GASTEIGER

@<TRIPOS>ATOM
      1 C         140.0086  141.2753  164.5196 C.ar    1  UNL1        0.1143
      2 C         139.3221  140.6162  165.6790 C.ar    1  UNL1        0.0850
      3 CL        138.0900  139.7637  165.6054 Cl      1  UNL1       -0.0799
      4 C         140.0838  140.9591  166.9248 C.ar    1  UNL1        0.0574
      5 C         139.8730  140.5907  168.3635 C.ar    1  UNL1        0.0631
      6 CL        138.7157  139.7196  168.7529 Cl      1  UNL1       -0.0821
      7 C         140.8197  141.0934  169.4128 C.ar    1  UNL1        0.0353
      8 C         141.9771  141.9646  169.0235 C.ar    1  UNL1        0.1366
      9 N         142.1878  142.3330  167.5848 N.ar    1  UNL1       -0.2236
     10 C         141.2412  141.8302  166.5355 C.ar    1  UNL1        0.1460
     11 N         141.1947  142.0257  165.0490 N.ar    1  UNL1       -0.3061
     12 C         142.1642  142.8302  164.2348 C.3     1  UNL1        0.1031
     13 C         143.4998  142.2521  163.8721 C.3     1  UNL1        0.0255
     14 C         144.4693  143.0566  163.0579 C.3     1  UNL1        0.0191
     15 C         144.1030  144.4394  162.6064 C.3     1  UNL1        0.0687
     16 N         142.7673  145.0176  162.9691 N.3     1  UNL1       -0.2959
     17 C         141.7979  144.2130  163.7833 C.3     1  UNL1        0.0914
     18 H         142.2976  145.2459  162.0930 H       1  UNL1        0.1233
     19 C         142.9237  142.4673  170.0729 C.2     1  UNL1        0.2606
     20 N         142.4495  142.6531  171.4837 N.am    1  UNL1       -0.3241
     21 O         144.3446  142.7841  169.7113 O.2     1  UNL1       -0.2687
     22 H         141.5169  142.4452  171.7210 H       1  UNL1        0.1453
     23 H         143.0708  142.9831  172.1724 H       1  UNL1        0.1453
     24 C         139.1589  141.1202  161.6467 C.1     1  UNL1       -0.0820
     25 C         139.5838  141.1978  163.0831 C.1     1  UNL1       -0.0459
     26 C         138.5641  142.5327  160.1800 C.3     1  UNL1        0.0181
     27 C         138.7340  141.0427  160.2102 C.3     1  UNL1        0.1088
     28 C         138.9039  139.5526  160.2404 C.3     1  UNL1        0.1565
     29 O         138.4790  139.4751  158.8039 O.3     1  UNL1       -0.3516
     30 C         138.3091  140.9651  158.7737 C.3     1  UNL1        0.1565
@<TRIPOS>BOND
     1    26    27    1
     2    27    24    1
     3    24    25    3
     4    25     1    1
     5     1     2   ar
     6     2     3    1
     7     2     4   ar
     8     4     5   ar
     9     5     6    1
    10     5     7   ar
    11     7     8   ar
    12     8    19    1
    13    19    20   am
    14    19    21    2
    15     8     9   ar
    16     9    10   ar
    17    10    11   ar
    18    12    11    1
    19    12    13    1
    20    13    14    1
    21    14    15    1
    22    15    16    1
    23    16    17    1
    24    27    28    1
    25    28    29    1
    26    29    30    1
    27    30    27    1
    28    11     1   ar
    29    17    12    1
    30    10     4   ar
    31    20    22    1
    32    20    23    1
    33    16    18    1
@<TRIPOS>MOLECULE
*****
 30 33 0 0 0
SMALL
GASTEIGER

@<TRIPOS>ATOM
      1 C         140.5035  140.0068  165.0730 C.ar    1  UNL1        0.1143
      2 C         139.5273  139.7627  166.1854 C.ar    1  UNL1        0.0850
      3 CL        138.2070  139.0615  166.0618 Cl      1  UNL1       -0.0799
      4 C         140.1031  140.3429  167.4431 C.ar    1  UNL1        0.0574
      5 C         139.5866  140.4003  168.8502 C.ar    1  UNL1        0.0631
      6 CL        138.2545  139.7976  169.1853 Cl      1  UNL1       -0.0821
      7 C         140.4022  141.0603  169.9221 C.ar    1  UNL1        0.0353
      8 C         141.7343  141.6630  169.5870 C.ar    1  UNL1        0.1366
      9 N         142.2508  141.6056  168.1799 N.ar    1  UNL1       -0.2236
     10 C         141.4352  140.9456  167.1080 C.ar    1  UNL1        0.1460
     11 N         141.6826  140.7378  165.6432 N.ar    1  UNL1       -0.3061
     12 C         142.8962  141.1830  164.8822 C.3     1  UNL1        0.1031
     13 C         144.0450  140.2393  164.6836 C.3     1  UNL1        0.0255
     14 C         145.2585  140.6845  163.9227 C.3     1  UNL1        0.0191
     15 C         145.3233  142.0735  163.3602 C.3     1  UNL1        0.0687
     16 N         144.1745  143.0173  163.5587 N.3     1  UNL1       -0.2959
     17 C         142.9609  142.5722  164.3197 C.3     1  UNL1        0.0914
     18 H         143.8551  143.2920  162.6297 H       1  UNL1        0.1233
     19 C         142.5498  142.3231  170.6590 C.2     1  UNL1        0.2606
     20 N         143.9016  142.8860  170.3335 N.am    1  UNL1       -0.3241
     21 O         142.0136  142.4203  172.0565 O.2     1  UNL1       -0.2687
     22 H         144.2535  142.8222  169.4163 H       1  UNL1        0.1453
     23 H         144.4368  143.3192  171.0371 H       1  UNL1        0.1453
     24 C         140.1581  139.1783  162.2104 C.1     1  UNL1       -0.0820
     25 C         140.3308  139.5926  163.6417 C.1     1  UNL1       -0.0459
     26 C         138.4960  138.7731  160.9562 C.3     1  UNL1        0.0181
     27 C         139.9855  138.7641  160.7791 C.3     1  UNL1        0.1088
     28 C         141.4749  138.7552  160.6020 C.3     1  UNL1        0.1565
     29 O         141.3023  138.3409  159.1707 O.3     1  UNL1       -0.3516
     30 C         139.8128  138.3499  159.3478 C.3     1  UNL1        0.1565
@<TRIPOS>BOND
     1    26    27    1
     2    27    24    1
     3    24    25    3
     4    25     1    1
     5     1     2   ar
     6     2     3    1
     7     2     4   ar
     8     4     5   ar
     9     5     6    1
    10     5     7   ar
    11     7     8   ar
    12     8    19    1
    13    19    20   am
    14    19    21    2
    15     8     9   ar
    16     9    10   ar
    17    10    11   ar
    18    12    11    1
    19    12    13    1
    20    13    14    1
    21    14    15    1
    22    15    16    1
    23    16    17    1
    24    27    28    1
    25    28    29    1
    26    29    30    1
    27    30    27    1
    28    11     1   ar
    29    17    12    1
    30    10     4   ar
    31    20    22    1
    32    20    23    1
    33    16    18    1
@<TRIPOS>MOLECULE
*****
 30 33 0 0 0
SMALL
GASTEIGER

@<TRIPOS>ATOM
      1 C         140.5114  142.6530  164.5942 C.ar    1  UNL1        0.1143
      2 C         140.7253  143.7771  163.6244 C.ar    1  UNL1        0.0850
      3 CL        141.3870  145.0888  163.9270 Cl      1  UNL1       -0.0799
      4 C         140.1611  143.3594  162.2988 C.ar    1  UNL1        0.0574
      5 C         140.0870  144.0591  160.9741 C.ar    1  UNL1        0.0631
      6 CL        140.6495  145.4415  160.8235 Cl      1  UNL1       -0.0821
      7 C         139.4504  143.3765  159.8000 C.ar    1  UNL1        0.0353
      8 C         138.8879  141.9941  159.9505 C.ar    1  UNL1        0.1366
      9 N         138.9620  141.2944  161.2752 N.ar    1  UNL1       -0.2236
     10 C         139.5986  141.9770  162.4493 C.ar    1  UNL1        0.1460
     11 N         139.8151  141.5405  163.8680 N.ar    1  UNL1       -0.3061
     12 C         139.4070  140.2227  164.4570 C.3     1  UNL1        0.1031
     13 C         138.4258  140.1795  165.5906 C.3     1  UNL1        0.0255
     14 C         138.0176  138.8618  166.1796 C.3     1  UNL1        0.0191
     15 C         138.5907  137.5871  165.6349 C.3     1  UNL1        0.0687
     16 N         139.5719  137.6302  164.5012 N.3     1  UNL1       -0.2959
     17 C         139.9801  138.9479  163.9122 C.3     1  UNL1        0.0914
     18 H         139.1693  137.0805  163.7422 H       1  UNL1        0.1233
     19 C         138.2512  141.3115  158.7763 C.2     1  UNL1        0.2606
     20 N         137.8160  142.1152  157.5869 N.am    1  UNL1       -0.3241
     21 O         138.0498  139.8251  158.7915 O.2     1  UNL1       -0.2687
     22 H         137.9482  143.0907  157.5769 H       1  UNL1        0.1453
     23 H         137.3981  141.6671  156.8163 H       1  UNL1        0.1453
     24 C         141.3322  142.6333  167.4797 C.1     1  UNL1       -0.0820
     25 C         140.9218  142.6431  166.0370 C.1     1  UNL1       -0.0459
     26 C         143.1109  142.1505  168.5300 C.3     1  UNL1        0.0181
     27 C         141.7426  142.6234  168.9224 C.3     1  UNL1        0.1088
     28 C         140.3742  143.0963  169.3149 C.3     1  UNL1        0.1565
     29 O         140.7846  143.0864  170.7576 O.3     1  UNL1       -0.3516
     30 C         142.1530  142.6135  170.3652 C.3     1  UNL1        0.1565
@<TRIPOS>BOND
     1    26    27    1
     2    27    24    1
     3    24    25    3
     4    25     1    1
     5     1     2   ar
     6     2     3    1
     7     2     4   ar
     8     4     5   ar
     9     5     6    1
    10     5     7   ar
    11     7     8   ar
    12     8    19    1
    13    19    20   am
    14    19    21    2
    15     8     9   ar
    16     9    10   ar
    17    10    11   ar
    18    12    11    1
    19    12    13    1
    20    13    14    1
    21    14    15    1
    22    15    16    1
    23    16    17    1
    24    27    28    1
    25    28    29    1
    26    29    30    1
    27    30    27    1
    28    11     1   ar
    29    17    12    1
    30    10     4   ar
    31    20    22    1
    32    20    23    1
    33    16    18    1
@<TRIPOS>MOLECULE
*****
 30 33 0 0 0
SMALL
GASTEIGER

@<TRIPOS>ATOM
      1 C         142.1477  140.8217  164.3272 C.ar    1  UNL1        0.1143
      2 C         142.8062  139.9390  165.3455 C.ar    1  UNL1        0.0850
      3 CL        144.0190  139.0856  165.1201 Cl      1  UNL1       -0.0799
      4 C         142.0391  140.0594  166.6288 C.ar    1  UNL1        0.0574
      5 C         142.2256  139.4211  167.9734 C.ar    1  UNL1        0.0631
      6 CL        143.3583  138.4639  168.1986 Cl      1  UNL1       -0.0821
      7 C         141.2793  139.7401  169.0927 C.ar    1  UNL1        0.0353
      8 C         140.1466  140.6973  168.8675 C.ar    1  UNL1        0.1366
      9 N         139.9602  141.3356  167.5230 N.ar    1  UNL1       -0.2236
     10 C         140.9064  141.0166  166.4036 C.ar    1  UNL1        0.1460
     11 N         140.9735  141.4878  164.9811 N.ar    1  UNL1       -0.3061
     12 C         140.0318  142.4551  164.3274 C.3     1  UNL1        0.1031
     13 C         138.7433  141.9646  163.7366 C.3     1  UNL1        0.0255
     14 C         137.8016  142.9319  163.0829 C.3     1  UNL1        0.0191
     15 C         138.1484  144.3899  163.0199 C.3     1  UNL1        0.0687
     16 N         139.4369  144.8806  163.6107 N.3     1  UNL1       -0.2959
     17 C         140.3786  143.9132  164.2644 C.3     1  UNL1        0.0914
     18 H         139.1917  145.5752  164.3162 H       1  UNL1        0.1233
     19 C         139.2004  141.0162  169.9869 C.2     1  UNL1        0.2606
     20 N         138.1631  140.0148  170.4004 N.am    1  UNL1       -0.3241
     21 O         139.2916  142.3366  170.6928 O.2     1  UNL1       -0.2687
     22 H         138.1032  139.1482  169.9370 H       1  UNL1        0.1453
     23 H         137.5420  140.2241  171.1350 H       1  UNL1        0.1453
     24 C         143.0250  141.1905  161.4821 C.1     1  UNL1       -0.0820
     25 C         142.5863  141.0061  162.9046 C.1     1  UNL1       -0.0459
     26 C         143.1939  142.8465  160.1671 C.3     1  UNL1        0.0181
     27 C         143.4636  141.3749  160.0596 C.3     1  UNL1        0.1088
     28 C         143.7333  139.9033  159.9520 C.3     1  UNL1        0.1565
     29 O         144.1719  140.0876  158.5294 O.3     1  UNL1       -0.3516
     30 C         143.9022  141.5593  158.6370 C.3     1  UNL1        0.1565
@<TRIPOS>BOND
     1    26    27    1
     2    27    24    1
     3    24    25    3
     4    25     1    1
     5     1     2   ar
     6     2     3    1
     7     2     4   ar
     8     4     5   ar
     9     5     6    1
    10     5     7   ar
    11     7     8   ar
    12     8    19    1
    13    19    20   am
    14    19    21    2
    15     8     9   ar
    16     9    10   ar
    17    10    11   ar
    18    12    11    1
    19    12    13    1
    20    13    14    1
    21    14    15    1
    22    15    16    1
    23    16    17    1
    24    27    28    1
    25    28    29    1
    26    29    30    1
    27    30    27    1
    28    11     1   ar
    29    17    12    1
    30    10     4   ar
    31    20    22    1
    32    20    23    1
    33    16    18    1
@<TRIPOS>MOLECULE
*****
 30 33 0 0 0
SMALL
GASTEIGER

@<TRIPOS>ATOM
      1 C         141.5638  140.5714  164.2046 C.ar    1  UNL1        0.1143
      2 C         142.5216  139.5956  164.8214 C.ar    1  UNL1        0.0850
      3 CL        143.5187  138.7523  164.0833 Cl      1  UNL1       -0.0799
      4 C         142.3074  139.6110  166.3060 C.ar    1  UNL1        0.0574
      5 C         142.9641  138.8551  167.4227 C.ar    1  UNL1        0.0631
      6 CL        144.0544  137.8697  167.1220 Cl      1  UNL1       -0.0821
      7 C         142.5307  139.0846  168.8403 C.ar    1  UNL1        0.0353
      8 C         141.4405  140.0700  169.1410 C.ar    1  UNL1        0.1366
      9 N         140.7837  140.8258  168.0242 N.ar    1  UNL1       -0.2236
     10 C         141.2171  140.5964  166.6067 C.ar    1  UNL1        0.1460
     11 N         140.7576  141.1899  165.3080 N.ar    1  UNL1       -0.3061
     12 C         139.6809  142.2210  165.1419 C.3     1  UNL1        0.1031
     13 C         139.9614  143.6577  165.4687 C.3     1  UNL1        0.0255
     14 C         138.8847  144.6888  165.3026 C.3     1  UNL1        0.0191
     15 C         137.5274  144.2831  164.8097 C.3     1  UNL1        0.0687
     16 N         137.2468  142.8463  164.4828 N.3     1  UNL1       -0.2959
     17 C         138.3235  141.8152  164.6489 C.3     1  UNL1        0.0914
     18 H         136.9599  142.8174  163.5044 H       1  UNL1        0.1233
     19 C         141.0070  140.2994  170.5586 C.2     1  UNL1        0.2606
     20 N         139.8528  139.5264  171.1244 N.am    1  UNL1       -0.3241
     21 O         141.7279  141.3019  171.4103 O.2     1  UNL1       -0.2687
     22 H         139.3797  138.8685  170.5654 H       1  UNL1        0.1453
     23 H         139.5683  139.6770  172.0548 H       1  UNL1        0.1453
     24 C         141.3060  141.1792  161.2782 C.1     1  UNL1       -0.0820
     25 C         141.4349  140.8753  162.7414 C.1     1  UNL1       -0.0459
     26 C         140.5179  140.1535  159.5969 C.3     1  UNL1        0.0181
     27 C         141.1770  141.4832  159.8150 C.3     1  UNL1        0.1088
     28 C         141.8361  142.8128  160.0331 C.3     1  UNL1        0.1565
     29 O         141.7072  143.1167  158.5699 O.3     1  UNL1       -0.3516
     30 C         141.0481  141.7871  158.3518 C.3     1  UNL1        0.1565
@<TRIPOS>BOND
     1    26    27    1
     2    27    24    1
     3    24    25    3
     4    25     1    1
     5     1     2   ar
     6     2     3    1
     7     2     4   ar
     8     4     5   ar
     9     5     6    1
    10     5     7   ar
    11     7     8   ar
    12     8    19    1
    13    19    20   am
    14    19    21    2
    15     8     9   ar
    16     9    10   ar
    17    10    11   ar
    18    12    11    1
    19    12    13    1
    20    13    14    1
    21    14    15    1
    22    15    16    1
    23    16    17    1
    24    27    28    1
    25    28    29    1
    26    29    30    1
    27    30    27    1
    28    11     1   ar
    29    17    12    1
    30    10     4   ar
    31    20    22    1
    32    20    23    1
    33    16    18    1
@<TRIPOS>MOLECULE
*****
 30 33 0 0 0
SMALL
GASTEIGER

@<TRIPOS>ATOM
      1 C         140.8580  140.8829  165.0696 C.ar    1  UNL1        0.1143
      2 C         139.9960  139.6757  164.8469 C.ar    1  UNL1        0.0850
      3 CL        139.3360  138.8544  165.9146 Cl      1  UNL1       -0.0799
      4 C         139.9099  139.4339  163.3690 C.ar    1  UNL1        0.0574
      5 C         139.1995  138.3872  162.5630 C.ar    1  UNL1        0.0631
      6 CL        138.3908  137.3294  163.2536 Cl      1  UNL1       -0.0821
      7 C         139.2979  138.3982  161.0663 C.ar    1  UNL1        0.0353
      8 C         140.1067  139.4560  160.3756 C.ar    1  UNL1        0.1366
      9 N         140.8170  140.5027  161.1816 N.ar    1  UNL1       -0.2236
     10 C         140.7186  140.4917  162.6783 C.ar    1  UNL1        0.1460
     11 N         141.3046  141.3872  163.7294 N.ar    1  UNL1       -0.3061
     12 C         142.1829  142.5780  163.4833 C.3     1  UNL1        0.1031
     13 C         141.7084  143.9504  163.8589 C.3     1  UNL1        0.0255
     14 C         142.5867  145.1412  163.6129 C.3     1  UNL1        0.0191
     15 C         143.9397  144.9596  162.9912 C.3     1  UNL1        0.0687
     16 N         144.4143  143.5871  162.6156 N.3     1  UNL1       -0.2959
     17 C         143.5360  142.3963  162.8616 C.3     1  UNL1        0.0914
     18 H         145.2810  143.4247  163.1283 H       1  UNL1        0.1233
     19 C         140.2050  139.4671  158.8788 C.2     1  UNL1        0.2606
     20 N         138.9587  139.5146  158.0456 N.am    1  UNL1       -0.3241
     21 O         141.5498  139.4306  158.2153 O.2     1  UNL1       -0.2687
     22 H         138.0761  139.5385  158.4811 H       1  UNL1        0.1453
     23 H         139.0232  139.5218  157.0633 H       1  UNL1        0.1453
     24 C         141.5646  142.0788  167.7287 C.1     1  UNL1       -0.0820
     25 C         141.2113  141.4809  166.3991 C.1     1  UNL1       -0.0459
     26 C         140.4758  143.0200  169.2871 C.3     1  UNL1        0.0181
     27 C         141.9179  142.6767  169.0582 C.3     1  UNL1        0.1088
     28 C         143.3601  142.3335  168.8293 C.3     1  UNL1        0.1565
     29 O         143.7134  142.9314  170.1588 O.3     1  UNL1       -0.3516
     30 C         142.2713  143.2747  170.3877 C.3     1  UNL1        0.1565
@<TRIPOS>BOND
     1    26    27    1
     2    27    24    1
     3    24    25    3
     4    25     1    1
     5     1     2   ar
     6     2     3    1
     7     2     4   ar
     8     4     5   ar
     9     5     6    1
    10     5     7   ar
    11     7     8   ar
    12     8    19    1
    13    19    20   am
    14    19    21    2
    15     8     9   ar
    16     9    10   ar
    17    10    11   ar
    18    12    11    1
    19    12    13    1
    20    13    14    1
    21    14    15    1
    22    15    16    1
    23    16    17    1
    24    27    28    1
    25    28    29    1
    26    29    30    1
    27    30    27    1
    28    11     1   ar
    29    17    12    1
    30    10     4   ar
    31    20    22    1
    32    20    23    1
    33    16    18    1
@<TRIPOS>MOLECULE
*****
 30 33 0 0 0
SMALL
GASTEIGER

@<TRIPOS>ATOM
      1 C         140.2325  140.9063  163.8953 C.ar    1  UNL1        0.1143
      2 C         139.3474  139.9248  164.6047 C.ar    1  UNL1        0.0850
      3 CL        138.5174  138.8569  163.9560 Cl      1  UNL1       -0.0799
      4 C         139.4379  140.1986  166.0767 C.ar    1  UNL1        0.0574
      5 C         138.7850  139.5487  167.2605 C.ar    1  UNL1        0.0631
      6 CL        137.8440  138.3980  167.0601 Cl      1  UNL1       -0.0821
      7 C         139.0732  140.0496  168.6447 C.ar    1  UNL1        0.0353
      8 C         140.0143  141.2004  168.8451 C.ar    1  UNL1        0.1366
      9 N         140.6672  141.8502  167.6613 N.ar    1  UNL1       -0.2236
     10 C         140.3790  141.3493  166.2771 C.ar    1  UNL1        0.1460
     11 N         140.8700  141.7867  164.9289 N.ar    1  UNL1       -0.3061
     12 C         141.8301  142.9077  164.6614 C.3     1  UNL1        0.1031
     13 C         141.3376  144.1886  164.0560 C.3     1  UNL1        0.0255
     14 C         142.2977  145.3097  163.7885 C.3     1  UNL1        0.0191
     15 C         143.7504  145.1497  164.1263 C.3     1  UNL1        0.0687
     16 N         144.2430  143.8688  164.7317 N.3     1  UNL1       -0.2959
     17 C         143.2829  142.7478  164.9993 C.3     1  UNL1        0.0914
     18 H         144.6697  144.1108  165.6260 H       1  UNL1        0.1233
     19 C         140.3025  141.7012  170.2294 C.2     1  UNL1        0.2606
     20 N         140.5739  143.1586  170.4583 N.am    1  UNL1       -0.3241
     21 O         140.3192  140.7447  171.3847 O.2     1  UNL1       -0.2687
     22 H         140.5629  143.7864  169.7000 H       1  UNL1        0.1453
     23 H         140.7630  143.4873  171.3668 H       1  UNL1        0.1453
     24 C         140.6536  141.0783  160.9300 C.1     1  UNL1       -0.0820
     25 C         140.4430  140.9923  162.4127 C.1     1  UNL1       -0.0459
     26 C         141.4364  142.5415  159.6085 C.3     1  UNL1        0.0181
     27 C         140.8641  141.1644  159.4473 C.3     1  UNL1        0.1088
     28 C         140.2919  139.7872  159.2862 C.3     1  UNL1        0.1565
     29 O         140.5024  139.8732  157.8035 O.3     1  UNL1       -0.3516
     30 C         141.0747  141.2504  157.9647 C.3     1  UNL1        0.1565
@<TRIPOS>BOND
     1    26    27    1
     2    27    24    1
     3    24    25    3
     4    25     1    1
     5     1     2   ar
     6     2     3    1
     7     2     4   ar
     8     4     5   ar
     9     5     6    1
    10     5     7   ar
    11     7     8   ar
    12     8    19    1
    13    19    20   am
    14    19    21    2
    15     8     9   ar
    16     9    10   ar
    17    10    11   ar
    18    12    11    1
    19    12    13    1
    20    13    14    1
    21    14    15    1
    22    15    16    1
    23    16    17    1
    24    27    28    1
    25    28    29    1
    26    29    30    1
    27    30    27    1
    28    11     1   ar
    29    17    12    1
    30    10     4   ar
    31    20    22    1
    32    20    23    1
    33    16    18    1
