@<TRIPOS>MOLECULE
*****
 21 21 0 0 0
SMALL
GASTEIGER

@<TRIPOS>ATOM
      1 C         138.1475  142.3032  161.9422 C.3     1  UNL1        0.1498
      2 C         138.1146  141.3339  163.0864 C.1     1  UNL1       -0.0730
      3 C         138.0816  140.3646  164.2307 C.1     1  UNL1       -0.0893
      4 C         138.0486  139.3952  165.3749 C.3     1  UNL1        0.0808
      5 C         138.9768  139.5773  166.5391 C.3     1  UNL1        0.0403
      6 C         140.4509  139.3617  166.3639 C.ar    1  UNL1       -0.0212
      7 C         140.9539  138.4795  165.2601 C.ar    1  UNL1       -0.0042
      8 C         142.4279  138.2639  165.0849 C.ar    1  UNL1       -0.0003
      9 C         143.3990  138.9306  166.0137 C.ar    1  UNL1       -0.0000
     10 C         142.8960  139.8129  167.1175 C.ar    1  UNL1       -0.0003
     11 C         141.4219  140.0284  167.2927 C.ar    1  UNL1       -0.0042
     12 N         138.4913  143.7425  162.1881 N.3     1  UNL1       -0.2618
     13 C         139.6386  144.3750  161.4575 C.3     1  UNL1        0.0730
     14 C         140.1938  145.6874  161.9257 C.3     1  UNL1        0.0188
     15 C         137.6879  144.5492  163.1647 C.3     1  UNL1        0.0730
     16 C         137.7700  144.2492  164.6321 C.3     1  UNL1        0.0174
     17 C         139.0643  144.4413  165.3656 C.3     1  UNL1        0.0014
     18 C         139.9308  143.2580  165.6802 C.3     1  UNL1        0.0000
     19 C         141.2761  143.1199  165.0311 C.3     1  UNL1        0.0000
     20 C         142.9179  141.7093  163.5943 C.3     1  UNL1        0.0000
     21 C         141.5193  142.0253  164.0348 C.3     1  UNL1        0.0000
@<TRIPOS>BOND
     1    20    21    1
     2    21    19    1
     3    19    18    1
     4    18    17    1
     5    17    16    1
     6    16    15    1
     7    15    12    1
     8    12    13    1
     9    13    14    1
    10    12     1    1
    11     1     2    1
    12     2     3    3
    13     3     4    1
    14     4     5    1
    15     5     6    1
    16     6     7   ar
    17     7     8   ar
    18     8     9   ar
    19     9    10   ar
    20    10    11   ar
    21    11     6   ar
@<TRIPOS>MOLECULE
*****
 21 21 0 0 0
SMALL
GASTEIGER

@<TRIPOS>ATOM
      1 C         140.7419  142.5530  166.5565 C.3     1  UNL1        0.1498
      2 C         139.8509  141.3473  166.5096 C.1     1  UNL1       -0.0730
      3 C         138.9598  140.1415  166.4626 C.1     1  UNL1       -0.0893
      4 C         138.0687  138.9358  166.4157 C.3     1  UNL1        0.0808
      5 C         138.5418  137.6792  165.7470 C.3     1  UNL1        0.0403
      6 C         139.4616  137.7592  164.5649 C.ar    1  UNL1       -0.0212
      7 C         138.9013  137.7152  163.1742 C.ar    1  UNL1       -0.0042
      8 C         139.8211  137.7952  161.9921 C.ar    1  UNL1       -0.0003
      9 C         141.3013  137.9193  162.2006 C.ar    1  UNL1       -0.0000
     10 C         141.8617  137.9633  163.5912 C.ar    1  UNL1       -0.0003
     11 C         140.9419  137.8833  164.7734 C.ar    1  UNL1       -0.0042
     12 N         141.2511  143.1594  165.2824 N.3     1  UNL1       -0.2618
     13 C         142.5539  142.6971  164.7001 C.3     1  UNL1        0.0730
     14 C         143.1831  141.4250  165.1856 C.3     1  UNL1        0.0188
     15 C         140.4575  144.2279  164.5908 C.3     1  UNL1        0.0730
     16 C         139.1304  144.6540  165.1452 C.3     1  UNL1        0.0174
     17 C         137.8714  143.9912  164.6703 C.3     1  UNL1        0.0014
     18 C         137.7294  143.5955  163.2304 C.3     1  UNL1        0.0000
     19 C         137.6077  142.1473  162.8591 C.3     1  UNL1        0.0000
     20 C         140.0436  141.5307  162.1989 C.3     1  UNL1        0.0000
     21 C         138.7960  141.2398  162.9791 C.3     1  UNL1        0.0000
@<TRIPOS>BOND
     1    20    21    1
     2    21    19    1
     3    19    18    1
     4    18    17    1
     5    17    16    1
     6    16    15    1
     7    15    12    1
     8    12    13    1
     9    13    14    1
    10    12     1    1
    11     1     2    1
    12     2     3    3
    13     3     4    1
    14     4     5    1
    15     5     6    1
    16     6     7   ar
    17     7     8   ar
    18     8     9   ar
    19     9    10   ar
    20    10    11   ar
    21    11     6   ar
@<TRIPOS>MOLECULE
*****
 21 21 0 0 0
SMALL
GASTEIGER

@<TRIPOS>ATOM
      1 C         138.3309  138.5164  165.6244 C.3     1  UNL1        0.1498
      2 C         138.8063  139.2681  166.8323 C.1     1  UNL1       -0.0730
      3 C         139.2816  140.0197  168.0402 C.1     1  UNL1       -0.0893
      4 C         139.7569  140.7714  169.2481 C.3     1  UNL1        0.0808
      5 C         140.5557  142.0300  169.0819 C.3     1  UNL1        0.0403
      6 C         141.2336  142.3212  167.7759 C.ar    1  UNL1       -0.0212
      7 C         140.4373  142.8462  166.6182 C.ar    1  UNL1       -0.0042
      8 C         141.1152  143.1373  165.3122 C.ar    1  UNL1       -0.0003
      9 C         142.5894  142.9035  165.1639 C.ar    1  UNL1       -0.0000
     10 C         143.3857  142.3785  166.3216 C.ar    1  UNL1       -0.0003
     11 C         142.7078  142.0874  167.6276 C.ar    1  UNL1       -0.0042
     12 N         138.9013  138.8307  164.2730 N.3     1  UNL1       -0.2618
     13 C         138.9079  140.2446  163.7721 C.3     1  UNL1        0.0730
     14 C         137.6131  140.9416  163.4764 C.3     1  UNL1        0.0188
     15 C         139.4649  137.7311  163.4227 C.3     1  UNL1        0.0730
     16 C         140.9345  137.4325  163.4599 C.3     1  UNL1        0.0174
     17 C         141.6687  137.4415  164.7679 C.3     1  UNL1        0.0014
     18 C         142.3060  138.7065  165.2614 C.3     1  UNL1        0.0000
     19 C         143.7784  138.7431  165.5459 C.3     1  UNL1        0.0000
     20 C         144.2725  139.6270  163.1533 C.3     1  UNL1        0.0000
     21 C         144.7161  139.3827  164.5652 C.3     1  UNL1        0.0000
@<TRIPOS>BOND
     1    20    21    1
     2    21    19    1
     3    19    18    1
     4    18    17    1
     5    17    16    1
     6    16    15    1
     7    15    12    1
     8    12    13    1
     9    13    14    1
    10    12     1    1
    11     1     2    1
    12     2     3    3
    13     3     4    1
    14     4     5    1
    15     5     6    1
    16     6     7   ar
    17     7     8   ar
    18     8     9   ar
    19     9    10   ar
    20    10    11   ar
    21    11     6   ar
@<TRIPOS>MOLECULE
*****
 21 21 0 0 0
SMALL
GASTEIGER

@<TRIPOS>ATOM
      1 C         137.9962  139.6997  163.0518 C.3     1  UNL1        0.1498
      2 C         137.8820  141.1531  163.4048 C.1     1  UNL1       -0.0730
      3 C         137.7678  142.6065  163.7579 C.1     1  UNL1       -0.0893
      4 C         137.6536  144.0599  164.1109 C.3     1  UNL1        0.0808
      5 C         138.6920  144.7043  164.9806 C.3     1  UNL1        0.0403
      6 C         140.0841  144.1473  165.0247 C.ar    1  UNL1       -0.0212
      7 C         141.1246  144.6524  164.0697 C.ar    1  UNL1       -0.0042
      8 C         142.5166  144.0954  164.1138 C.ar    1  UNL1       -0.0003
      9 C         142.8682  143.0334  165.1129 C.ar    1  UNL1       -0.0000
     10 C         141.8277  142.5282  166.0680 C.ar    1  UNL1       -0.0003
     11 C         140.4356  143.0852  166.0239 C.ar    1  UNL1       -0.0042
     12 N         139.0650  138.8566  163.6818 N.3     1  UNL1       -0.2618
     13 C         140.4489  138.8446  163.1036 C.3     1  UNL1        0.0730
     14 C         141.4051  139.9552  163.4233 C.3     1  UNL1        0.0188
     15 C         138.7497  138.0256  164.8901 C.3     1  UNL1        0.0730
     16 C         138.2932  138.6867  166.1568 C.3     1  UNL1        0.0174
     17 C         139.1174  139.7785  166.7722 C.3     1  UNL1        0.0014
     18 C         139.1692  139.9290  168.2637 C.3     1  UNL1        0.0000
     19 C         140.3710  140.5481  168.9138 C.3     1  UNL1        0.0000
     20 C         140.3104  143.0486  169.6163 C.3     1  UNL1        0.0000
     21 C         140.1946  141.5961  169.9723 C.3     1  UNL1        0.0000
@<TRIPOS>BOND
     1    20    21    1
     2    21    19    1
     3    19    18    1
     4    18    17    1
     5    17    16    1
     6    16    15    1
     7    15    12    1
     8    12    13    1
     9    13    14    1
    10    12     1    1
    11     1     2    1
    12     2     3    3
    13     3     4    1
    14     4     5    1
    15     5     6    1
    16     6     7   ar
    17     7     8   ar
    18     8     9   ar
    19     9    10   ar
    20    10    11   ar
    21    11     6   ar
@<TRIPOS>MOLECULE
*****
 21 21 0 0 0
SMALL
GASTEIGER

@<TRIPOS>ATOM
      1 C         139.6655  144.3164  164.2838 C.3     1  UNL1        0.1498
      2 C         139.9705  143.6160  165.5747 C.1     1  UNL1       -0.0730
      3 C         140.2754  142.9156  166.8656 C.1     1  UNL1       -0.0893
      4 C         140.5804  142.2152  168.1565 C.3     1  UNL1        0.0808
      5 C         140.4583  140.7229  168.2471 C.3     1  UNL1        0.0403
      6 C         141.1867  139.8500  167.2686 C.ar    1  UNL1       -0.0212
      7 C         140.4711  139.3142  166.0642 C.ar    1  UNL1       -0.0042
      8 C         141.1994  138.4413  165.0857 C.ar    1  UNL1       -0.0003
      9 C         142.6434  138.1041  165.3116 C.ar    1  UNL1       -0.0000
     10 C         143.3591  138.6399  166.5161 C.ar    1  UNL1       -0.0003
     11 C         142.6307  139.5129  167.4946 C.ar    1  UNL1       -0.0042
     12 N         140.7707  144.6204  163.3161 N.3     1  UNL1       -0.2618
     13 C         140.6674  144.1622  161.8915 C.3     1  UNL1        0.0730
     14 C         140.8234  142.7081  161.5582 C.3     1  UNL1        0.0188
     15 C         141.9792  145.3824  163.7731 C.3     1  UNL1        0.0730
     16 C         143.3507  144.8171  163.5507 C.3     1  UNL1        0.0174
     17 C         144.0894  144.1727  164.6861 C.3     1  UNL1        0.0014
     18 C         143.5689  142.9051  165.2961 C.3     1  UNL1        0.0000
     19 C         142.9817  141.8376  164.4210 C.3     1  UNL1        0.0000
     20 C         145.3082  140.7536  164.0186 C.3     1  UNL1        0.0000
     21 C         143.8814  140.9587  163.6037 C.3     1  UNL1        0.0000
@<TRIPOS>BOND
     1    20    21    1
     2    21    19    1
     3    19    18    1
     4    18    17    1
     5    17    16    1
     6    16    15    1
     7    15    12    1
     8    12    13    1
     9    13    14    1
    10    12     1    1
    11     1     2    1
    12     2     3    3
    13     3     4    1
    14     4     5    1
    15     5     6    1
    16     6     7   ar
    17     7     8   ar
    18     8     9   ar
    19     9    10   ar
    20    10    11   ar
    21    11     6   ar
@<TRIPOS>MOLECULE
*****
 21 21 0 0 0
SMALL
GASTEIGER

@<TRIPOS>ATOM
      1 C         137.2165  141.8664  163.1464 C.3     1  UNL1        0.1498
      2 C         137.8989  140.7840  163.9293 C.1     1  UNL1       -0.0730
      3 C         138.5812  139.7016  164.7122 C.1     1  UNL1       -0.0893
      4 C         139.2635  138.6193  165.4951 C.3     1  UNL1        0.0808
      5 C         140.3506  137.8049  164.8587 C.3     1  UNL1        0.0403
      6 C         141.7021  138.4116  164.6231 C.ar    1  UNL1       -0.0212
      7 C         142.7790  138.2687  165.6573 C.ar    1  UNL1       -0.0042
      8 C         144.1305  138.8754  165.4217 C.ar    1  UNL1       -0.0003
      9 C         144.4049  139.6250  164.1518 C.ar    1  UNL1       -0.0000
     10 C         143.3280  139.7680  163.1176 C.ar    1  UNL1       -0.0003
     11 C         141.9766  139.1613  163.3532 C.ar    1  UNL1       -0.0042
     12 N         138.0033  143.0438  162.6516 N.3     1  UNL1       -0.2618
     13 C         138.6573  142.9954  161.3026 C.3     1  UNL1        0.0730
     14 C         140.0351  142.4203  161.1573 C.3     1  UNL1        0.0188
     15 C         138.1359  144.2696  163.5058 C.3     1  UNL1        0.0730
     16 C         138.9873  144.2351  164.7403 C.3     1  UNL1        0.0174
     17 C         140.4657  144.0090  164.6256 C.3     1  UNL1        0.0014
     18 C         141.0169  142.6147  164.6708 C.3     1  UNL1        0.0000
     19 C         141.3548  141.9841  165.9893 C.3     1  UNL1        0.0000
     20 C         143.7952  142.8499  165.7781 C.3     1  UNL1        0.0000
     21 C         142.7475  142.0901  166.5363 C.3     1  UNL1        0.0000
@<TRIPOS>BOND
     1    20    21    1
     2    21    19    1
     3    19    18    1
     4    18    17    1
     5    17    16    1
     6    16    15    1
     7    15    12    1
     8    12    13    1
     9    13    14    1
    10    12     1    1
    11     1     2    1
    12     2     3    3
    13     3     4    1
    14     4     5    1
    15     5     6    1
    16     6     7   ar
    17     7     8   ar
    18     8     9   ar
    19     9    10   ar
    20    10    11   ar
    21    11     6   ar
@<TRIPOS>MOLECULE
*****
 21 21 0 0 0
SMALL
GASTEIGER

@<TRIPOS>ATOM
      1 C         140.9366  137.3324  163.3614 C.3     1  UNL1        0.1498
      2 C         141.7302  137.9173  164.4919 C.1     1  UNL1       -0.0730
      3 C         142.5239  138.5022  165.6225 C.1     1  UNL1       -0.0893
      4 C         143.3175  139.0870  166.7530 C.3     1  UNL1        0.0808
      5 C         142.7476  139.1019  168.1404 C.3     1  UNL1        0.0403
      6 C         141.8521  140.2254  168.5715 C.ar    1  UNL1       -0.0212
      7 C         140.5727  139.9289  169.2960 C.ar    1  UNL1       -0.0042
      8 C         139.6771  141.0524  169.7270 C.ar    1  UNL1       -0.0003
      9 C         140.0610  142.4724  169.4335 C.ar    1  UNL1       -0.0000
     10 C         141.3405  142.7689  168.7089 C.ar    1  UNL1       -0.0003
     11 C         142.2360  141.6454  168.2779 C.ar    1  UNL1       -0.0042
     12 N         139.4656  137.6069  163.2570 N.3     1  UNL1       -0.2618
     13 C         138.8934  138.1544  161.9830 C.3     1  UNL1        0.0730
     14 C         137.9512  139.3208  162.0244 C.3     1  UNL1        0.0188
     15 C         138.5668  137.3339  164.4264 C.3     1  UNL1        0.0730
     16 C         138.6990  138.1471  165.6799 C.3     1  UNL1        0.0174
     17 C         138.3053  139.5945  165.6799 C.3     1  UNL1        0.0014
     18 C         139.3493  140.6557  165.8643 C.3     1  UNL1        0.0000
     19 C         139.9561  141.3269  164.6679 C.3     1  UNL1        0.0000
     20 C         141.6303  143.3037  164.8651 C.3     1  UNL1        0.0000
     21 C         141.3666  141.8335  164.7273 C.3     1  UNL1        0.0000
@<TRIPOS>BOND
     1    20    21    1
     2    21    19    1
     3    19    18    1
     4    18    17    1
     5    17    16    1
     6    16    15    1
     7    15    12    1
     8    12    13    1
     9    13    14    1
    10    12     1    1
    11     1     2    1
    12     2     3    3
    13     3     4    1
    14     4     5    1
    15     5     6    1
    16     6     7   ar
    17     7     8   ar
    18     8     9   ar
    19     9    10   ar
    20    10    11   ar
    21    11     6   ar
@<TRIPOS>MOLECULE
*****
 21 21 0 0 0
SMALL
GASTEIGER

@<TRIPOS>ATOM
      1 C         141.2206  137.9309  164.6410 C.3     1  UNL1        0.1498
      2 C         141.8852  139.2036  165.0752 C.1     1  UNL1       -0.0730
      3 C         142.5498  140.4763  165.5094 C.1     1  UNL1       -0.0893
      4 C         143.2144  141.7490  165.9436 C.3     1  UNL1        0.0808
      5 C         143.0805  142.2190  167.3618 C.3     1  UNL1        0.0403
      6 C         142.1655  141.4989  168.3074 C.ar    1  UNL1       -0.0212
      7 C         140.7766  142.0130  168.5446 C.ar    1  UNL1       -0.0042
      8 C         139.8616  141.2929  169.4902 C.ar    1  UNL1       -0.0003
      9 C         140.3355  140.0586  170.1986 C.ar    1  UNL1       -0.0000
     10 C         141.7245  139.5444  169.9613 C.ar    1  UNL1       -0.0003
     11 C         142.6395  140.2645  169.0157 C.ar    1  UNL1       -0.0042
     12 N         139.7350  137.8923  164.4372 N.3     1  UNL1       -0.2618
     13 C         139.1718  137.6473  163.0687 C.3     1  UNL1        0.0730
     14 C         139.2102  138.7347  162.0362 C.3     1  UNL1        0.0188
     15 C         138.8126  138.0986  165.6019 C.3     1  UNL1        0.0730
     16 C         138.0777  139.3972  165.7558 C.3     1  UNL1        0.0174
     17 C         138.8362  140.6912  165.7697 C.3     1  UNL1        0.0014
     18 C         138.9723  141.4943  164.5102 C.3     1  UNL1        0.0000
     19 C         139.7895  142.7522  164.5074 C.3     1  UNL1        0.0000
     20 C         138.6171  144.8742  165.4415 C.3     1  UNL1        0.0000
     21 C         139.6128  143.7638  165.6008 C.3     1  UNL1        0.0000
@<TRIPOS>BOND
     1    20    21    1
     2    21    19    1
     3    19    18    1
     4    18    17    1
     5    17    16    1
     6    16    15    1
     7    15    12    1
     8    12    13    1
     9    13    14    1
    10    12     1    1
    11     1     2    1
    12     2     3    3
    13     3     4    1
    14     4     5    1
    15     5     6    1
    16     6     7   ar
    17     7     8   ar
    18     8     9   ar
    19     9    10   ar
    20    10    11   ar
    21    11     6   ar
@<TRIPOS>MOLECULE
*****
 21 21 0 0 0
SMALL
GASTEIGER

@<TRIPOS>ATOM
      1 C         141.4609  145.0638  163.6467 C.3     1  UNL1        0.1498
      2 C         141.7750  143.8414  164.4573 C.1     1  UNL1       -0.0730
      3 C         142.0891  142.6190  165.2679 C.1     1  UNL1       -0.0893
      4 C         142.4032  141.3966  166.0785 C.3     1  UNL1        0.0808
      5 C         142.0871  140.0347  165.5351 C.3     1  UNL1        0.0403
      6 C         140.7421  139.4202  165.7873 C.ar    1  UNL1       -0.0212
      7 C         139.8643  139.9582  166.8781 C.ar    1  UNL1       -0.0042
      8 C         138.5194  139.3438  167.1302 C.ar    1  UNL1       -0.0003
      9 C         138.0523  138.1912  166.2915 C.ar    1  UNL1       -0.0000
     10 C         138.9301  137.6532  165.2007 C.ar    1  UNL1       -0.0003
     11 C         140.2750  138.2677  164.9486 C.ar    1  UNL1       -0.0042
     12 N         140.5051  144.9742  162.4940 N.3     1  UNL1       -0.2618
     13 C         140.9926  144.5239  161.1488 C.3     1  UNL1        0.0730
     14 C         140.3024  144.9972  159.9040 C.3     1  UNL1        0.0188
     15 C         139.0620  145.3348  162.6867 C.3     1  UNL1        0.0730
     16 C         138.0723  144.2806  163.0859 C.3     1  UNL1        0.0174
     17 C         138.1147  143.6967  164.4669 C.3     1  UNL1        0.0014
     18 C         138.1735  142.2092  164.6507 C.3     1  UNL1        0.0000
     19 C         137.7107  141.2988  163.5520 C.3     1  UNL1        0.0000
     20 C         140.0741  141.1435  162.4844 C.3     1  UNL1        0.0000
     21 C         138.7142  140.5562  162.7206 C.3     1  UNL1        0.0000
@<TRIPOS>BOND
     1    20    21    1
     2    21    19    1
     3    19    18    1
     4    18    17    1
     5    17    16    1
     6    16    15    1
     7    15    12    1
     8    12    13    1
     9    13    14    1
    10    12     1    1
    11     1     2    1
    12     2     3    3
    13     3     4    1
    14     4     5    1
    15     5     6    1
    16     6     7   ar
    17     7     8   ar
    18     8     9   ar
    19     9    10   ar
    20    10    11   ar
    21    11     6   ar
