@<TRIPOS>MOLECULE
*****
 27 30 0 0 0
SMALL
GASTEIGER

@<TRIPOS>ATOM
      1 N         138.9226  137.6993  163.9004 N.pl3   1  UNL1       -0.2150
      2 H         138.1699  137.0648  163.8856 H       1  UNL1        0.1737
      3 C         139.2619  138.4310  165.1650 C.ar    1  UNL1        0.0648
      4 C         140.6378  138.9962  165.3583 C.ar    1  UNL1        0.0155
      5 C         140.9772  139.7280  166.6231 C.ar    1  UNL1       -0.0029
      6 C         139.9406  139.8944  167.6944 C.ar    1  UNL1       -0.0214
      7 C         138.5647  139.3292  167.5011 C.ar    1  UNL1       -0.0029
      8 C         138.2254  138.5975  166.2365 C.ar    1  UNL1        0.0155
      9 C         140.2800  140.6262  168.9592 C.3     1  UNL1        0.0350
     10 C         138.9626  140.3886  169.6360 C.3     1  UNL1        0.0072
     11 C         140.0367  141.1662  170.3372 C.3     1  UNL1        0.0214
     12 C         141.2747  141.8904  170.7765 C.3     1  UNL1        0.0725
     13 N         142.2830  141.7980  169.6699 N.3     1  UNL1       -0.2712
     14 C         143.6638  142.3840  169.6839 C.3     1  UNL1        0.0896
     15 C         141.6683  141.0166  168.5466 C.3     1  UNL1        0.0762
     16 S         139.7299  137.9342  162.6582 S.O2    1  UNL1        0.0736
     17 O         138.8043  139.0480  162.2673 O.2     1  UNL1       -0.1499
     18 O         140.6555  136.8204  163.0491 O.2     1  UNL1       -0.1499
     19 C         142.1520  138.6391  158.9317 C.ar    1  UNL1       -0.0224
     20 C         142.8263  138.1708  160.1871 C.ar    1  UNL1       -0.0029
     21 C         142.0189  137.9358  161.4292 C.ar    1  UNL1        0.0199
     22 C         140.5373  138.1692  161.4160 C.ar    1  UNL1        0.1251
     23 C         139.8630  138.6375  160.1607 C.ar    1  UNL1        0.0199
     24 C         140.6703  138.8724  158.9185 C.ar    1  UNL1       -0.0029
     25 C         143.7189  140.1563  157.5201 C.3     1  UNL1        0.0047
     26 C         142.9593  138.8740  157.6895 C.3     1  UNL1        0.0224
     27 C         143.0071  137.8267  156.6168 C.3     1  UNL1        0.0047
@<TRIPOS>BOND
     1    25    26    1
     2    26    27    1
     3    26    19    1
     4    19    20   ar
     5    20    21   ar
     6    21    22   ar
     7    22    16    1
     8    16    17    2
     9    16    18    2
    10    16     1    1
    11     1     3    1
    12     3     4   ar
    13     4     5   ar
    14     5     6   ar
    15     9     6    1
    16     9    10    1
    17    11    10    1
    18    11    12    1
    19    12    13    1
    20    13    14    1
    21    13    15    1
    22     6     7   ar
    23     7     8   ar
    24    22    23   ar
    25    23    24   ar
    26    24    19   ar
    27     8     3   ar
    28    11     9    1
    29    15     9    1
    30     1     2    1
@<TRIPOS>MOLECULE
*****
 27 30 0 0 0
SMALL
GASTEIGER

@<TRIPOS>ATOM
      1 N         138.6117  138.3305  164.5742 N.pl3   1  UNL1       -0.2150
      2 H         138.2211  137.4753  164.8664 H       1  UNL1        0.1737
      3 C         138.7098  138.6495  163.1119 C.ar    1  UNL1        0.0648
      4 C         137.9466  139.8095  162.5445 C.ar    1  UNL1        0.0155
      5 C         138.0446  140.1285  161.0820 C.ar    1  UNL1       -0.0029
      6 C         138.9059  139.2876  160.1870 C.ar    1  UNL1       -0.0214
      7 C         139.6691  138.1276  160.7545 C.ar    1  UNL1       -0.0029
      8 C         139.5711  137.8085  162.2168 C.ar    1  UNL1        0.0155
      9 C         139.0040  139.6066  158.7246 C.3     1  UNL1        0.0350
     10 C         139.8659  138.4327  158.3655 C.3     1  UNL1        0.0072
     11 C         139.4419  139.4043  157.3043 C.3     1  UNL1        0.0214
     12 C         138.8711  140.5199  156.4799 C.3     1  UNL1        0.0725
     13 N         138.0805  141.4117  157.3907 N.3     1  UNL1       -0.2712
     14 C         137.3380  142.6504  156.9854 C.3     1  UNL1        0.0896
     15 C         138.1626  140.8472  158.7781 C.3     1  UNL1        0.0762
     16 S         139.1088  139.3144  165.5915 S.O2    1  UNL1        0.0736
     17 O         137.7944  139.2357  166.3099 O.2     1  UNL1       -0.1499
     18 O         140.4232  139.3930  164.8731 O.2     1  UNL1       -0.1499
     19 C         140.6000  142.2661  168.6434 C.ar    1  UNL1       -0.0224
     20 C         140.6765  142.5950  167.1819 C.ar    1  UNL1       -0.0029
     21 C         140.1794  141.6111  166.1646 C.ar    1  UNL1        0.0199
     22 C         139.6059  140.2983  166.6088 C.ar    1  UNL1        0.1251
     23 C         139.5294  139.9693  168.0702 C.ar    1  UNL1        0.0199
     24 C         140.0265  140.9532  169.0875 C.ar    1  UNL1       -0.0029
     25 C         142.4508  143.0684  170.2806 C.3     1  UNL1        0.0047
     26 C         141.0971  143.2499  169.6606 C.3     1  UNL1        0.0224
     27 C         140.2405  144.4154  170.0579 C.3     1  UNL1        0.0047
@<TRIPOS>BOND
     1    25    26    1
     2    26    27    1
     3    26    19    1
     4    19    20   ar
     5    20    21   ar
     6    21    22   ar
     7    22    16    1
     8    16    17    2
     9    16    18    2
    10    16     1    1
    11     1     3    1
    12     3     4   ar
    13     4     5   ar
    14     5     6   ar
    15     9     6    1
    16     9    10    1
    17    11    10    1
    18    11    12    1
    19    12    13    1
    20    13    14    1
    21    13    15    1
    22     6     7   ar
    23     7     8   ar
    24    22    23   ar
    25    23    24   ar
    26    24    19   ar
    27     8     3   ar
    28    11     9    1
    29    15     9    1
    30     1     2    1
@<TRIPOS>MOLECULE
*****
 27 30 0 0 0
SMALL
GASTEIGER

@<TRIPOS>ATOM
      1 N         141.1010  145.7144  162.4156 N.pl3   1  UNL1       -0.2150
      2 H         141.5029  146.5960  162.5903 H       1  UNL1        0.1737
      3 C         140.8793  144.7539  163.5462 C.ar    1  UNL1        0.0648
      4 C         139.5568  144.7200  164.2531 C.ar    1  UNL1        0.0155
      5 C         139.3352  143.7594  165.3837 C.ar    1  UNL1       -0.0029
      6 C         140.4360  142.8328  165.8073 C.ar    1  UNL1       -0.0214
      7 C         141.7585  142.8667  165.1004 C.ar    1  UNL1       -0.0029
      8 C         141.9802  143.8272  163.9698 C.ar    1  UNL1        0.0155
      9 C         140.2143  141.8722  166.9379 C.3     1  UNL1        0.0350
     10 C         141.0274  142.6275  167.9470 C.3     1  UNL1        0.0072
     11 C         140.3539  141.3446  168.3351 C.3     1  UNL1        0.0214
     12 C         139.5807  140.0625  168.4258 C.3     1  UNL1        0.0725
     13 N         138.9633  139.7976  167.0847 N.3     1  UNL1       -0.2712
     14 C         138.1049  138.6209  166.7261 C.3     1  UNL1        0.0896
     15 C         139.3549  140.9161  166.1650 C.3     1  UNL1        0.0762
     16 S         140.7104  145.3318  161.0188 S.O2    1  UNL1        0.0736
     17 O         142.0696  144.7355  160.8020 O.2     1  UNL1       -0.1499
     18 O         139.3511  145.9280  161.2356 O.2     1  UNL1       -0.1499
     19 C         139.5385  144.1838  156.8285 C.ar    1  UNL1       -0.0224
     20 C         140.2583  145.4758  157.0787 C.ar    1  UNL1       -0.0029
     21 C         140.6489  145.8584  158.4754 C.ar    1  UNL1        0.0199
     22 C         140.3197  144.9491  159.6220 C.ar    1  UNL1        0.1251
     23 C         139.5999  143.6571  159.3719 C.ar    1  UNL1        0.0199
     24 C         139.2093  143.2745  157.9751 C.ar    1  UNL1       -0.0029
     25 C         140.0984  143.0188  154.5748 C.3     1  UNL1        0.0047
     26 C         139.1479  143.8012  155.4317 C.3     1  UNL1        0.0224
     27 C         137.8067  144.2008  154.8919 C.3     1  UNL1        0.0047
@<TRIPOS>BOND
     1    25    26    1
     2    26    27    1
     3    26    19    1
     4    19    20   ar
     5    20    21   ar
     6    21    22   ar
     7    22    16    1
     8    16    17    2
     9    16    18    2
    10    16     1    1
    11     1     3    1
    12     3     4   ar
    13     4     5   ar
    14     5     6   ar
    15     9     6    1
    16     9    10    1
    17    11    10    1
    18    11    12    1
    19    12    13    1
    20    13    14    1
    21    13    15    1
    22     6     7   ar
    23     7     8   ar
    24    22    23   ar
    25    23    24   ar
    26    24    19   ar
    27     8     3   ar
    28    11     9    1
    29    15     9    1
    30     1     2    1
@<TRIPOS>MOLECULE
*****
 27 30 0 0 0
SMALL
GASTEIGER

@<TRIPOS>ATOM
      1 N         137.9864  140.6316  163.4132 N.pl3   1  UNL1       -0.2150
      2 H         137.2386  140.0260  163.2054 H       1  UNL1        0.1737
      3 C         138.5617  140.6650  164.7981 C.ar    1  UNL1        0.0648
      4 C         138.2911  139.5379  165.7501 C.ar    1  UNL1        0.0155
      5 C         138.8664  139.5714  167.1350 C.ar    1  UNL1       -0.0029
      6 C         139.7123  140.7319  167.5679 C.ar    1  UNL1       -0.0214
      7 C         139.9830  141.8591  166.6159 C.ar    1  UNL1       -0.0029
      8 C         139.4077  141.8256  165.2310 C.ar    1  UNL1        0.0155
      9 C         140.2877  140.7654  168.9528 C.3     1  UNL1        0.0350
     10 C         139.1113  140.1239  169.6268 C.3     1  UNL1        0.0072
     11 C         140.3076  140.5322  170.4344 C.3     1  UNL1        0.0214
     12 C         141.6165  141.0366  170.9655 C.3     1  UNL1        0.0725
     13 N         142.4057  141.5815  169.8122 N.3     1  UNL1       -0.2712
     14 C         143.7756  142.1877  169.8892 C.3     1  UNL1        0.0896
     15 C         141.5844  141.4139  168.5681 C.3     1  UNL1        0.0762
     16 S         138.5506  141.5208  162.3451 S.O2    1  UNL1        0.0736
     17 O         137.3637  142.4289  162.4742 O.2     1  UNL1       -0.1499
     18 O         139.7375  140.6128  162.2160 O.2     1  UNL1       -0.1499
     19 C         140.2430  144.1886  159.1406 C.ar    1  UNL1       -0.0224
     20 C         140.6852  144.3532  160.5644 C.ar    1  UNL1       -0.0029
     21 C         140.1211  143.4640  161.6325 C.ar    1  UNL1        0.0199
     22 C         139.1147  142.4101  161.2769 C.ar    1  UNL1        0.1251
     23 C         138.6725  142.2455  159.8531 C.ar    1  UNL1        0.0199
     24 C         139.2366  143.1347  158.7849 C.ar    1  UNL1       -0.0029
     25 C         142.2085  144.8648  157.5820 C.3     1  UNL1        0.0047
     26 C         140.8071  145.0779  158.0724 C.3     1  UNL1        0.0224
     27 C         139.9698  146.1802  157.4947 C.3     1  UNL1        0.0047
@<TRIPOS>BOND
     1    25    26    1
     2    26    27    1
     3    26    19    1
     4    19    20   ar
     5    20    21   ar
     6    21    22   ar
     7    22    16    1
     8    16    17    2
     9    16    18    2
    10    16     1    1
    11     1     3    1
    12     3     4   ar
    13     4     5   ar
    14     5     6   ar
    15     9     6    1
    16     9    10    1
    17    11    10    1
    18    11    12    1
    19    12    13    1
    20    13    14    1
    21    13    15    1
    22     6     7   ar
    23     7     8   ar
    24    22    23   ar
    25    23    24   ar
    26    24    19   ar
    27     8     3   ar
    28    11     9    1
    29    15     9    1
    30     1     2    1
@<TRIPOS>MOLECULE
*****
 27 30 0 0 0
SMALL
GASTEIGER

@<TRIPOS>ATOM
      1 N         138.8522  137.6215  163.9018 N.pl3   1  UNL1       -0.2150
      2 H         138.4234  136.7369  163.9561 H       1  UNL1        0.1737
      3 C         139.2003  138.3646  165.1574 C.ar    1  UNL1        0.0648
      4 C         138.1654  138.5580  166.2258 C.ar    1  UNL1        0.0155
      5 C         138.5136  139.3012  167.4814 C.ar    1  UNL1       -0.0029
      6 C         139.8966  139.8509  167.6686 C.ar    1  UNL1       -0.0214
      7 C         140.9315  139.6574  166.6001 C.ar    1  UNL1       -0.0029
      8 C         140.5834  138.9143  165.3446 C.ar    1  UNL1        0.0155
      9 C         140.2448  140.5941  168.9242 C.3     1  UNL1        0.0350
     10 C         138.9286  140.3716  169.6082 C.3     1  UNL1        0.0072
     11 C         140.0097  141.1502  170.2972 C.3     1  UNL1        0.0214
     12 C         141.2535  141.8717  170.7244 C.3     1  UNL1        0.0725
     13 N         142.2573  141.7615  169.6153 N.3     1  UNL1       -0.2712
     14 C         143.6415  142.3394  169.6182 C.3     1  UNL1        0.0896
     15 C         141.6339  140.9718  168.5026 C.3     1  UNL1        0.0762
     16 S         139.1573  138.2260  162.5634 S.O2    1  UNL1        0.0736
     17 O         140.2978  137.2672  162.3903 O.2     1  UNL1       -0.1499
     18 O         138.0168  139.1849  162.7365 O.2     1  UNL1       -0.1499
     19 C         140.0727  140.0398  158.5481 C.ar    1  UNL1       -0.0224
     20 C         141.1652  139.3896  159.3440 C.ar    1  UNL1       -0.0029
     21 C         140.8601  138.7850  160.6824 C.ar    1  UNL1        0.0199
     22 C         139.4624  138.8306  161.2249 C.ar    1  UNL1        0.1251
     23 C         138.3699  139.4809  160.4291 C.ar    1  UNL1        0.0199
     24 C         138.6750  140.0855  159.0906 C.ar    1  UNL1       -0.0029
     25 C         140.8039  139.7672  156.0700 C.3     1  UNL1        0.0047
     26 C         140.3778  140.6444  157.2097 C.3     1  UNL1        0.0224
     27 C         140.2568  142.1262  157.0109 C.3     1  UNL1        0.0047
@<TRIPOS>BOND
     1    25    26    1
     2    26    27    1
     3    26    19    1
     4    19    20   ar
     5    20    21   ar
     6    21    22   ar
     7    22    16    1
     8    16    17    2
     9    16    18    2
    10    16     1    1
    11     1     3    1
    12     3     4   ar
    13     4     5   ar
    14     5     6   ar
    15     9     6    1
    16     9    10    1
    17    11    10    1
    18    11    12    1
    19    12    13    1
    20    13    14    1
    21    13    15    1
    22     6     7   ar
    23     7     8   ar
    24    22    23   ar
    25    23    24   ar
    26    24    19   ar
    27     8     3   ar
    28    11     9    1
    29    15     9    1
    30     1     2    1
@<TRIPOS>MOLECULE
*****
 27 30 0 0 0
SMALL
GASTEIGER

@<TRIPOS>ATOM
      1 N         141.0055  145.7932  162.5972 N.pl3   1  UNL1       -0.2150
      2 H         141.3797  146.6799  162.8043 H       1  UNL1        0.1737
      3 C         140.7908  144.7945  163.6955 C.ar    1  UNL1        0.0648
      4 C         139.4442  144.6716  164.3448 C.ar    1  UNL1        0.0155
      5 C         139.2296  143.6728  165.4433 C.ar    1  UNL1       -0.0029
      6 C         140.3615  142.7971  165.8924 C.ar    1  UNL1       -0.0214
      7 C         141.7081  142.9200  165.2431 C.ar    1  UNL1       -0.0029
      8 C         141.9228  143.9186  164.1447 C.ar    1  UNL1        0.0155
      9 C         140.1468  141.7983  166.9908 C.3     1  UNL1        0.0350
     10 C         139.6245  140.7040  166.1079 C.3     1  UNL1        0.0072
     11 C         139.7463  140.4812  167.5862 C.3     1  UNL1        0.0214
     12 C         139.9762  140.5526  169.0667 C.3     1  UNL1        0.0725
     13 N         140.5189  141.9139  169.3864 N.3     1  UNL1       -0.2712
     14 C         140.8908  142.4171  170.7497 C.3     1  UNL1        0.0896
     15 C         140.6243  142.6839  168.1033 C.3     1  UNL1        0.0762
     16 S         140.6501  145.4409  161.1831 S.O2    1  UNL1        0.0736
     17 O         139.3208  146.1157  161.3491 O.2     1  UNL1       -0.1499
     18 O         141.9794  144.7661  161.0171 O.2     1  UNL1       -0.1499
     19 C         139.5838  144.3839  156.9410 C.ar    1  UNL1       -0.0224
     20 C         139.3802  143.3810  158.0376 C.ar    1  UNL1       -0.0029
     21 C         139.7357  143.7333  159.4516 C.ar    1  UNL1        0.0199
     22 C         140.2946  145.0886  159.7691 C.ar    1  UNL1        0.1251
     23 C         140.4982  146.0915  158.6724 C.ar    1  UNL1        0.0199
     24 C         140.1427  145.7392  157.2584 C.ar    1  UNL1       -0.0029
     25 C         140.1612  143.1914  154.7062 C.3     1  UNL1        0.0047
     26 C         139.2283  144.0316  155.5269 C.3     1  UNL1        0.0224
     27 C         137.9400  144.5196  154.9336 C.3     1  UNL1        0.0047
@<TRIPOS>BOND
     1    25    26    1
     2    26    27    1
     3    26    19    1
     4    19    20   ar
     5    20    21   ar
     6    21    22   ar
     7    22    16    1
     8    16    17    2
     9    16    18    2
    10    16     1    1
    11     1     3    1
    12     3     4   ar
    13     4     5   ar
    14     5     6   ar
    15     9     6    1
    16     9    10    1
    17    11    10    1
    18    11    12    1
    19    12    13    1
    20    13    14    1
    21    13    15    1
    22     6     7   ar
    23     7     8   ar
    24    22    23   ar
    25    23    24   ar
    26    24    19   ar
    27     8     3   ar
    28    11     9    1
    29    15     9    1
    30     1     2    1
@<TRIPOS>MOLECULE
*****
 27 30 0 0 0
SMALL
GASTEIGER

@<TRIPOS>ATOM
      1 N         144.8022  140.2572  162.2583 N.pl3   1  UNL1       -0.2150
      2 H         145.6718  140.6866  162.0888 H       1  UNL1        0.1737
      3 C         144.0481  139.6192  161.1295 C.ar    1  UNL1        0.0648
      4 C         143.6948  140.4241  159.9140 C.ar    1  UNL1        0.0155
      5 C         142.9407  139.7861  158.7851 C.ar    1  UNL1       -0.0029
      6 C         142.5399  138.3432  158.8718 C.ar    1  UNL1       -0.0214
      7 C         142.8932  137.5384  160.0872 C.ar    1  UNL1       -0.0029
      8 C         143.6472  138.1763  161.2161 C.ar    1  UNL1        0.0155
      9 C         141.7858  137.7052  157.7429 C.3     1  UNL1        0.0350
     10 C         140.5393  138.5237  157.9046 C.3     1  UNL1        0.0072
     11 C         140.6194  137.4844  156.8261 C.3     1  UNL1        0.0214
     12 C         140.9873  136.3960  155.8617 C.3     1  UNL1        0.0725
     13 N         142.3812  135.9442  156.1825 N.3     1  UNL1       -0.2712
     14 C         143.1471  134.8715  155.4665 C.3     1  UNL1        0.0896
     15 C         142.8747  136.7533  157.3452 C.3     1  UNL1        0.0762
     16 S         144.2315  140.2409  163.6454 S.O2    1  UNL1        0.0736
     17 O         143.1543  141.1912  163.2133 O.2     1  UNL1       -0.1499
     18 O         145.3086  139.2906  164.0774 O.2     1  UNL1       -0.1499
     19 C         142.5192  140.1921  167.8066 C.ar    1  UNL1       -0.0224
     20 C         142.6761  141.4923  167.0754 C.ar    1  UNL1       -0.0029
     21 C         143.2468  141.5086  165.6883 C.ar    1  UNL1        0.0199
     22 C         143.6607  140.2246  165.0325 C.ar    1  UNL1        0.1251
     23 C         143.5039  138.9244  165.7637 C.ar    1  UNL1        0.0199
     24 C         142.9331  138.9081  167.1508 C.ar    1  UNL1       -0.0029
     25 C         140.4700  140.0221  169.3946 C.3     1  UNL1        0.0047
     26 C         141.9485  140.1758  169.1937 C.3     1  UNL1        0.0224
     27 C         142.8562  140.3132  170.3799 C.3     1  UNL1        0.0047
@<TRIPOS>BOND
     1    25    26    1
     2    26    27    1
     3    26    19    1
     4    19    20   ar
     5    20    21   ar
     6    21    22   ar
     7    22    16    1
     8    16    17    2
     9    16    18    2
    10    16     1    1
    11     1     3    1
    12     3     4   ar
    13     4     5   ar
    14     5     6   ar
    15     9     6    1
    16     9    10    1
    17    11    10    1
    18    11    12    1
    19    12    13    1
    20    13    14    1
    21    13    15    1
    22     6     7   ar
    23     7     8   ar
    24    22    23   ar
    25    23    24   ar
    26    24    19   ar
    27     8     3   ar
    28    11     9    1
    29    15     9    1
    30     1     2    1
@<TRIPOS>MOLECULE
*****
 27 30 0 0 0
SMALL
GASTEIGER

@<TRIPOS>ATOM
      1 N         142.1038  138.2010  156.8593 N.pl3   1  UNL1       -0.2150
      2 H         141.7507  138.8723  156.2318 H       1  UNL1        0.1737
      3 C         142.0807  136.7466  156.4930 C.ar    1  UNL1        0.0648
      4 C         143.0178  135.7885  157.1667 C.ar    1  UNL1        0.0155
      5 C         142.9946  134.3340  156.8003 C.ar    1  UNL1       -0.0029
      6 C         142.0343  133.8378  155.7603 C.ar    1  UNL1       -0.0214
      7 C         141.0972  134.7959  155.0867 C.ar    1  UNL1       -0.0029
      8 C         141.1204  136.2503  155.4530 C.ar    1  UNL1        0.0155
      9 C         142.0111  132.3834  155.3940 C.3     1  UNL1        0.0350
     10 C         141.2781  132.5600  154.0973 C.3     1  UNL1        0.0072
     11 C         141.6911  131.1892  154.5447 C.3     1  UNL1        0.0214
     12 C         142.2216  129.9704  155.2399 C.3     1  UNL1        0.0725
     13 N         142.8694  130.4114  156.5189 N.3     1  UNL1       -0.2712
     14 C         143.5311  129.5180  157.5258 C.3     1  UNL1        0.0896
     15 C         142.7393  131.9028  156.6141 C.3     1  UNL1        0.0762
     16 S         142.6651  138.6325  158.1817 S.O2    1  UNL1        0.0736
     17 O         141.4051  138.1859  158.8622 O.2     1  UNL1       -0.1499
     18 O         143.9251  139.0790  157.5013 O.2     1  UNL1       -0.1499
     19 C         144.3489  139.9270  162.1490 C.ar    1  UNL1       -0.0224
     20 C         144.2030  140.9216  161.0357 C.ar    1  UNL1       -0.0029
     21 C         143.6418  140.4901  159.7132 C.ar    1  UNL1        0.0199
     22 C         143.2264  139.0640  159.5042 C.ar    1  UNL1        0.1251
     23 C         143.3723  138.0695  160.6175 C.ar    1  UNL1        0.0199
     24 C         143.9335  138.5010  161.9399 C.ar    1  UNL1       -0.0029
     25 C         145.6914  141.6349  163.5741 C.3     1  UNL1        0.0047
     26 C         144.9102  140.3585  163.4714 C.3     1  UNL1        0.0224
     27 C         144.6902  139.5137  164.6912 C.3     1  UNL1        0.0047
@<TRIPOS>BOND
     1    25    26    1
     2    26    27    1
     3    26    19    1
     4    19    20   ar
     5    20    21   ar
     6    21    22   ar
     7    22    16    1
     8    16    17    2
     9    16    18    2
    10    16     1    1
    11     1     3    1
    12     3     4   ar
    13     4     5   ar
    14     5     6   ar
    15     9     6    1
    16     9    10    1
    17    11    10    1
    18    11    12    1
    19    12    13    1
    20    13    14    1
    21    13    15    1
    22     6     7   ar
    23     7     8   ar
    24    22    23   ar
    25    23    24   ar
    26    24    19   ar
    27     8     3   ar
    28    11     9    1
    29    15     9    1
    30     1     2    1
@<TRIPOS>MOLECULE
*****
 27 30 0 0 0
SMALL
GASTEIGER

@<TRIPOS>ATOM
      1 N         142.2599  137.5760  162.9402 N.pl3   1  UNL1       -0.2150
      2 H         143.0205  136.9531  162.9926 H       1  UNL1        0.1737
      3 C         141.6240  137.8733  161.6146 C.ar    1  UNL1        0.0648
      4 C         142.4708  137.9629  160.3798 C.ar    1  UNL1        0.0155
      5 C         141.8349  138.2602  159.0541 C.ar    1  UNL1       -0.0029
      6 C         140.3521  138.4680  158.9634 C.ar    1  UNL1       -0.0214
      7 C         139.5053  138.3785  160.1983 C.ar    1  UNL1       -0.0029
      8 C         140.1412  138.0811  161.5238 C.ar    1  UNL1        0.0155
      9 C         139.7162  138.7654  157.6378 C.3     1  UNL1        0.0350
     10 C         140.4548  137.7101  156.8693 C.3     1  UNL1        0.0072
     11 C         139.4644  138.5928  156.1693 C.3     1  UNL1        0.0214
     12 C         138.4373  139.6036  155.7530 C.3     1  UNL1        0.0725
     13 N         138.0542  140.4009  156.9644 N.3     1  UNL1       -0.2712
     14 C         137.0560  141.5199  157.0039 C.3     1  UNL1        0.0896
     15 C         138.8446  139.8829  158.1293 C.3     1  UNL1        0.0762
     16 S         141.7370  138.2277  164.1859 S.O2    1  UNL1        0.0736
     17 O         141.1304  136.9241  164.6133 O.2     1  UNL1       -0.1499
     18 O         142.3436  139.5313  163.7585 O.2     1  UNL1       -0.1499
     19 C         140.1683  140.1828  167.9231 C.ar    1  UNL1       -0.0224
     20 C         139.2190  139.7693  166.8379 C.ar    1  UNL1       -0.0029
     21 C         139.7419  139.1176  165.5921 C.ar    1  UNL1        0.0199
     22 C         141.2141  138.8794  165.4316 C.ar    1  UNL1        0.1251
     23 C         142.1634  139.2929  166.5169 C.ar    1  UNL1        0.0199
     24 C         141.6405  139.9446  167.7626 C.ar    1  UNL1       -0.0029
     25 C         140.1893  142.1624  169.6055 C.3     1  UNL1        0.0047
     26 C         139.6454  140.8345  169.1688 C.3     1  UNL1        0.0224
     27 C         138.5785  140.1583  169.9779 C.3     1  UNL1        0.0047
@<TRIPOS>BOND
     1    25    26    1
     2    26    27    1
     3    26    19    1
     4    19    20   ar
     5    20    21   ar
     6    21    22   ar
     7    22    16    1
     8    16    17    2
     9    16    18    2
    10    16     1    1
    11     1     3    1
    12     3     4   ar
    13     4     5   ar
    14     5     6   ar
    15     9     6    1
    16     9    10    1
    17    11    10    1
    18    11    12    1
    19    12    13    1
    20    13    14    1
    21    13    15    1
    22     6     7   ar
    23     7     8   ar
    24    22    23   ar
    25    23    24   ar
    26    24    19   ar
    27     8     3   ar
    28    11     9    1
    29    15     9    1
    30     1     2    1
