@<TRIPOS>MOLECULE
*****
 34 36 0 0 0
SMALL
GASTEIGER

@<TRIPOS>ATOM
      1 C         142.5609  138.9773  162.7418 C.ar    1  UNL1        0.0000
      2 C         141.3874  139.3228  161.8737 C.ar    1  UNL1        0.0000
      3 C         141.3631  138.8890  160.4380 C.ar    1  UNL1        0.0016
      4 C         142.5122  138.1097  159.8704 C.ar    1  UNL1        0.0207
      5 C         143.6856  137.7642  160.7385 C.ar    1  UNL1        0.0016
      6 C         143.7100  138.1980  162.1742 C.ar    1  UNL1        0.0000
      7 C         142.6339  140.2787  167.0489 C.ar    1  UNL1        0.0222
      8 C         142.2491  141.2547  165.9769 C.ar    1  UNL1        0.0016
      9 C         142.2248  140.8209  164.5412 C.ar    1  UNL1        0.0001
     10 C         142.5852  139.4111  164.1775 C.ar    1  UNL1        0.0000
     11 C         142.9700  138.4350  165.2495 C.ar    1  UNL1        0.0001
     12 C         142.9944  138.8688  166.6852 C.ar    1  UNL1        0.0016
     13 N         142.9446  139.7126  169.5654 N.2     1  UNL1       -0.1091
     14 C         142.6583  140.7125  168.4846 C.2     1  UNL1        0.1359
     15 N         142.9689  140.1464  171.0011 N.pl3   1  UNL1       -0.1544
     16 H         143.6386  139.7711  171.6175 H       1  UNL1        0.2922
     17 N         140.5990  140.7090  171.9050 N.pl3   1  UNL1       -0.1280
     18 C         141.9729  141.1521  171.4977 C.cat   1  UNL1        0.3997
     19 N         142.3509  142.6010  171.5870 N.pl3   1  UNL1       -0.2876
     20 H         139.9453  141.3691  172.2309 H       1  UNL1        0.3062
     21 H         141.6972  143.2611  171.9129 H       1  UNL1        0.2547
     22 H         143.2527  142.8918  171.3196 H       1  UNL1        0.2547
     23 C         142.4878  137.6759  158.4347 C.2     1  UNL1        0.1175
     24 N         143.1278  136.3806  158.0316 N.2     1  UNL1       -0.1797
     25 N         143.1034  135.9468  156.5959 N.pl3   1  UNL1       -0.2337
     26 H         143.3458  136.5834  155.8852 H       1  UNL1        0.1745
     27 C         142.7098  134.5429  156.2432 C.ar    1  UNL1        0.0925
     28 C         141.6129  134.2987  155.2497 C.ar    1  UNL1        0.0206
     29 C         141.2193  132.8948  154.8970 C.ar    1  UNL1        0.0311
     30 C         141.9227  131.7353  155.5378 C.ar    1  UNL1        0.1425
     31 F         141.5292  130.3315  155.1851 F       1  UNL1       -0.2041
     32 C         143.0197  131.9795  156.5313 C.ar    1  UNL1        0.0606
     33 C         143.4133  133.3833  156.8840 C.ar    1  UNL1        0.1570
     34 F         144.5103  133.6276  157.8775 F       1  UNL1       -0.2027
@<TRIPOS>BOND
     1    17    18    2
     2    18    19    1
     3    18    15    1
     4    15    13    1
     5    13    14    2
     6    14     7    1
     7     7     8   ar
     8     8     9   ar
     9     9    10   ar
    10    10     1    1
    11     1     2   ar
    12     2     3   ar
    13     3     4   ar
    14     4    23    1
    15    23    24    2
    16    24    25    1
    17    25    27    1
    18    27    28   ar
    19    28    29   ar
    20    29    30   ar
    21    30    31    1
    22    30    32   ar
    23    32    33   ar
    24    33    34    1
    25     4     5   ar
    26     5     6   ar
    27    10    11   ar
    28    11    12   ar
    29    12     7   ar
    30     6     1   ar
    31    33    27   ar
    32    17    20    1
    33    19    21    1
    34    19    22    1
    35    15    16    1
    36    25    26    1
@<TRIPOS>MOLECULE
*****
 34 36 0 0 0
SMALL
GASTEIGER

@<TRIPOS>ATOM
      1 C         140.9830  139.3072  164.5232 C.ar    1  UNL1        0.0000
      2 C         142.0956  138.3155  164.3542 C.ar    1  UNL1        0.0000
      3 C         142.7779  138.1730  163.0260 C.ar    1  UNL1        0.0016
      4 C         142.3475  139.0221  161.8668 C.ar    1  UNL1        0.0207
      5 C         141.2349  140.0138  162.0358 C.ar    1  UNL1        0.0016
      6 C         140.5526  140.1563  163.3640 C.ar    1  UNL1        0.0000
      7 C         138.9361  139.7349  168.5079 C.ar    1  UNL1        0.0222
      8 C         140.3536  140.1958  168.3395 C.ar    1  UNL1        0.0016
      9 C         141.0358  140.0532  167.0113 C.ar    1  UNL1        0.0001
     10 C         140.3007  139.4498  165.8514 C.ar    1  UNL1        0.0000
     11 C         138.8832  138.9889  166.0198 C.ar    1  UNL1        0.0001
     12 C         138.2009  139.1315  167.3480 C.ar    1  UNL1        0.0016
     13 N         137.0507  139.0404  170.1549 N.2     1  UNL1       -0.1091
     14 C         138.2538  139.8775  169.8361 C.2     1  UNL1        0.1359
     15 N         136.3684  139.1830  171.4831 N.pl3   1  UNL1       -0.1544
     16 H         136.2491  140.0751  171.8820 H       1  UNL1        0.2922
     17 N         136.4322  136.6156  171.8762 N.pl3   1  UNL1       -0.1280
     18 C         135.8679  137.9662  172.2036 C.cat   1  UNL1        0.3997
     19 N         134.8030  138.1002  173.2515 N.pl3   1  UNL1       -0.2876
     20 H         136.1037  135.8170  172.3490 H       1  UNL1        0.3062
     21 H         134.4744  137.3016  173.7244 H       1  UNL1        0.2547
     22 H         134.4326  138.9867  173.4664 H       1  UNL1        0.2547
     23 C         143.0298  138.8795  160.5386 C.2     1  UNL1        0.1175
     24 N         142.4165  138.0264  159.4681 N.2     1  UNL1       -0.1797
     25 N         143.0988  137.8839  158.1398 N.pl3   1  UNL1       -0.2337
     26 H         143.8968  138.4231  157.9360 H       1  UNL1        0.1745
     27 C         142.5651  136.9196  157.1222 C.ar    1  UNL1        0.0925
     28 C         143.3634  135.7063  156.7477 C.ar    1  UNL1        0.0206
     29 C         142.8297  134.7420  155.7300 C.ar    1  UNL1        0.0311
     30 C         141.4977  134.9913  155.0869 C.ar    1  UNL1        0.1425
     31 F         140.9640  134.0271  154.0694 F       1  UNL1       -0.2041
     32 C         140.6993  136.2047  155.4615 C.ar    1  UNL1        0.0606
     33 C         141.2330  137.1689  156.4791 C.ar    1  UNL1        0.1570
     34 F         140.4347  138.3823  156.8537 F       1  UNL1       -0.2027
@<TRIPOS>BOND
     1    17    18    2
     2    18    19    1
     3    18    15    1
     4    15    13    1
     5    13    14    2
     6    14     7    1
     7     7     8   ar
     8     8     9   ar
     9     9    10   ar
    10    10     1    1
    11     1     2   ar
    12     2     3   ar
    13     3     4   ar
    14     4    23    1
    15    23    24    2
    16    24    25    1
    17    25    27    1
    18    27    28   ar
    19    28    29   ar
    20    29    30   ar
    21    30    31    1
    22    30    32   ar
    23    32    33   ar
    24    33    34    1
    25     4     5   ar
    26     5     6   ar
    27    10    11   ar
    28    11    12   ar
    29    12     7   ar
    30     6     1   ar
    31    33    27   ar
    32    17    20    1
    33    19    21    1
    34    19    22    1
    35    15    16    1
    36    25    26    1
@<TRIPOS>MOLECULE
*****
 34 36 0 0 0
SMALL
GASTEIGER

@<TRIPOS>ATOM
      1 C         141.6124  142.5423  165.4556 C.ar    1  UNL1        0.0000
      2 C         140.4726  143.5172  165.4677 C.ar    1  UNL1        0.0000
      3 C         140.2403  144.4142  164.2880 C.ar    1  UNL1        0.0016
      4 C         141.1479  144.3361  163.0963 C.ar    1  UNL1        0.0207
      5 C         142.2877  143.3612  163.0842 C.ar    1  UNL1        0.0016
      6 C         142.5199  142.4642  164.2639 C.ar    1  UNL1        0.0000
      7 C         142.3092  139.8515  168.9945 C.ar    1  UNL1        0.0222
      8 C         142.7422  139.4174  167.6256 C.ar    1  UNL1        0.0016
      9 C         142.5100  140.3144  166.4459 C.ar    1  UNL1        0.0001
     10 C         141.8447  141.6453  166.6352 C.ar    1  UNL1        0.0000
     11 C         141.4116  142.0793  168.0042 C.ar    1  UNL1        0.0001
     12 C         141.6439  141.1824  169.1838 C.ar    1  UNL1        0.0016
     13 N         143.3540  137.7035  170.0167 N.2     1  UNL1       -0.1091
     14 C         142.5415  138.9545  170.1742 C.2     1  UNL1        0.1359
     15 N         143.5862  136.8066  171.1963 N.pl3   1  UNL1       -0.1544
     16 H         142.9165  136.7567  171.9162 H       1  UNL1        0.2922
     17 N         146.1790  136.6472  171.1514 N.pl3   1  UNL1       -0.1280
     18 C         144.8389  135.9856  171.2791 C.cat   1  UNL1        0.3997
     19 N         144.7515  134.5030  171.4896 N.pl3   1  UNL1       -0.2876
     20 H         147.0012  136.1084  171.2057 H       1  UNL1        0.3062
     21 H         145.5736  133.9642  171.5439 H       1  UNL1        0.2547
     22 H         143.8719  134.0688  171.5734 H       1  UNL1        0.2547
     23 C         140.9156  145.2331  161.9167 C.2     1  UNL1        0.1175
     24 N         139.9786  144.8088  160.8249 N.2     1  UNL1       -0.1797
     25 N         139.7463  145.7058  159.6453 N.pl3   1  UNL1       -0.2337
     26 H         139.0683  146.4179  159.6943 H       1  UNL1        0.1745
     27 C         140.5471  145.5176  158.3908 C.ar    1  UNL1        0.0925
     28 C         141.6492  144.5010  158.3500 C.ar    1  UNL1        0.0206
     29 C         142.4500  144.3129  157.0956 C.ar    1  UNL1        0.0311
     30 C         142.1485  145.1413  155.8821 C.ar    1  UNL1        0.1425
     31 F         142.9491  144.9532  154.6277 F       1  UNL1       -0.2041
     32 C         141.0462  146.1580  155.9229 C.ar    1  UNL1        0.0606
     33 C         140.2456  146.3461  157.1773 C.ar    1  UNL1        0.1570
     34 F         139.1433  147.3627  157.2181 F       1  UNL1       -0.2027
@<TRIPOS>BOND
     1    17    18    2
     2    18    19    1
     3    18    15    1
     4    15    13    1
     5    13    14    2
     6    14     7    1
     7     7     8   ar
     8     8     9   ar
     9     9    10   ar
    10    10     1    1
    11     1     2   ar
    12     2     3   ar
    13     3     4   ar
    14     4    23    1
    15    23    24    2
    16    24    25    1
    17    25    27    1
    18    27    28   ar
    19    28    29   ar
    20    29    30   ar
    21    30    31    1
    22    30    32   ar
    23    32    33   ar
    24    33    34    1
    25     4     5   ar
    26     5     6   ar
    27    10    11   ar
    28    11    12   ar
    29    12     7   ar
    30     6     1   ar
    31    33    27   ar
    32    17    20    1
    33    19    21    1
    34    19    22    1
    35    15    16    1
    36    25    26    1
@<TRIPOS>MOLECULE
*****
 34 36 0 0 0
SMALL
GASTEIGER

@<TRIPOS>ATOM
      1 C         142.4065  139.0355  162.5769 C.ar    1  UNL1        0.0000
      2 C         141.2858  139.5016  161.6957 C.ar    1  UNL1        0.0000
      3 C         141.2516  139.1010  160.2505 C.ar    1  UNL1        0.0016
      4 C         142.3383  138.2344  159.6866 C.ar    1  UNL1        0.0207
      5 C         143.4591  137.7683  160.5678 C.ar    1  UNL1        0.0016
      6 C         143.4932  138.1688  162.0130 C.ar    1  UNL1        0.0000
      7 C         142.5089  140.2372  166.9122 C.ar    1  UNL1        0.0222
      8 C         141.9882  141.1938  165.8809 C.ar    1  UNL1        0.0016
      9 C         141.9541  140.7932  164.4358 C.ar    1  UNL1        0.0001
     10 C         142.4407  139.4361  164.0220 C.ar    1  UNL1        0.0000
     11 C         142.9613  138.4794  165.0533 C.ar    1  UNL1        0.0001
     12 C         142.9955  138.8800  166.4985 C.ar    1  UNL1        0.0016
     13 N         142.9136  139.6313  169.4061 N.2     1  UNL1       -0.1091
     14 C         142.5430  140.6377  168.3574 C.2     1  UNL1        0.1359
     15 N         142.9477  140.0319  170.8512 N.pl3   1  UNL1       -0.1544
     16 H         143.6932  139.7417  171.4250 H       1  UNL1        0.2922
     17 N         142.1173  142.2953  171.8195 N.pl3   1  UNL1       -0.1280
     18 C         141.8459  140.8747  171.4221 C.cat   1  UNL1        0.3997
     19 N         140.4726  140.2967  171.5956 N.pl3   1  UNL1       -0.2876
     20 H         141.3942  142.8484  172.1942 H       1  UNL1        0.3062
     21 H         139.7495  140.8498  171.9702 H       1  UNL1        0.2547
     22 H         140.2945  139.3642  171.3347 H       1  UNL1        0.2547
     23 C         142.3042  137.8338  158.2415 C.2     1  UNL1        0.1175
     24 N         143.3115  136.8579  157.7097 N.2     1  UNL1       -0.1797
     25 N         143.2774  136.4573  156.2646 N.pl3   1  UNL1       -0.2337
     26 H         143.4453  137.1281  155.5638 H       1  UNL1        0.1745
     27 C         142.9874  135.0347  155.8873 C.ar    1  UNL1        0.0925
     28 C         143.1111  133.9468  156.9124 C.ar    1  UNL1        0.0206
     29 C         142.8212  132.5242  156.5351 C.ar    1  UNL1        0.0311
     30 C         142.4075  132.1897  155.1326 C.ar    1  UNL1        0.1425
     31 F         142.1175  130.7672  154.7553 F       1  UNL1       -0.2041
     32 C         142.2838  133.2778  154.1075 C.ar    1  UNL1        0.0606
     33 C         142.5737  134.7002  154.4848 C.ar    1  UNL1        0.1570
     34 F         142.4500  135.7883  153.4596 F       1  UNL1       -0.2027
@<TRIPOS>BOND
     1    17    18    2
     2    18    19    1
     3    18    15    1
     4    15    13    1
     5    13    14    2
     6    14     7    1
     7     7     8   ar
     8     8     9   ar
     9     9    10   ar
    10    10     1    1
    11     1     2   ar
    12     2     3   ar
    13     3     4   ar
    14     4    23    1
    15    23    24    2
    16    24    25    1
    17    25    27    1
    18    27    28   ar
    19    28    29   ar
    20    29    30   ar
    21    30    31    1
    22    30    32   ar
    23    32    33   ar
    24    33    34    1
    25     4     5   ar
    26     5     6   ar
    27    10    11   ar
    28    11    12   ar
    29    12     7   ar
    30     6     1   ar
    31    33    27   ar
    32    17    20    1
    33    19    21    1
    34    19    22    1
    35    15    16    1
    36    25    26    1
@<TRIPOS>MOLECULE
*****
 34 36 0 0 0
SMALL
GASTEIGER

@<TRIPOS>ATOM
      1 C         142.3529  139.1430  162.5180 C.ar    1  UNL1        0.0000
      2 C         143.2036  138.0203  162.0025 C.ar    1  UNL1        0.0000
      3 C         143.1705  137.6618  160.5463 C.ar    1  UNL1        0.0016
      4 C         142.2868  138.4261  159.6057 C.ar    1  UNL1        0.0207
      5 C         141.4361  139.5488  160.1212 C.ar    1  UNL1        0.0016
      6 C         141.4692  139.9073  161.5773 C.ar    1  UNL1        0.0000
      7 C         142.4521  140.2184  166.8865 C.ar    1  UNL1        0.0222
      8 C         142.8349  138.8368  166.4453 C.ar    1  UNL1        0.0016
      9 C         142.8018  138.4784  164.9891 C.ar    1  UNL1        0.0001
     10 C         142.3860  139.5015  163.9741 C.ar    1  UNL1        0.0000
     11 C         142.0033  140.8831  164.4153 C.ar    1  UNL1        0.0001
     12 C         142.0363  141.2415  165.8715 C.ar    1  UNL1        0.0016
     13 N         143.0004  139.5888  169.3467 N.2     1  UNL1       -0.1091
     14 C         142.4852  140.5769  168.3426 C.2     1  UNL1        0.1359
     15 N         143.0334  139.9473  170.8029 N.pl3   1  UNL1       -0.1544
     16 H         143.6932  139.5247  171.3990 H       1  UNL1        0.2922
     17 N         140.7267  140.4969  171.8646 N.pl3   1  UNL1       -0.1280
     18 C         142.0612  140.9497  171.3508 C.cat   1  UNL1        0.3997
     19 N         142.4236  142.4049  171.3849 N.pl3   1  UNL1       -0.2876
     20 H         140.0887  141.1548  172.2242 H       1  UNL1        0.3062
     21 H         141.7856  143.0628  171.7445 H       1  UNL1        0.2547
     22 H         143.2995  142.7020  171.0476 H       1  UNL1        0.2547
     23 C         142.2537  138.0676  158.1495 C.2     1  UNL1        0.1175
     24 N         143.3113  137.1737  157.5729 N.2     1  UNL1       -0.1797
     25 N         143.2782  136.8152  156.1168 N.pl3   1  UNL1       -0.2337
     26 H         143.6293  137.4453  155.4466 H       1  UNL1        0.1745
     27 C         142.7103  135.4968  155.6817 C.ar    1  UNL1        0.0925
     28 C         142.0346  135.3747  154.3481 C.ar    1  UNL1        0.0206
     29 C         141.4666  134.0563  153.9130 C.ar    1  UNL1        0.0311
     30 C         141.5744  132.8600  154.8115 C.ar    1  UNL1        0.1425
     31 F         141.0065  131.5416  154.3765 F       1  UNL1       -0.2041
     32 C         142.2502  132.9822  156.1451 C.ar    1  UNL1        0.0606
     33 C         142.8181  134.3006  156.5802 C.ar    1  UNL1        0.1570
     34 F         143.4938  134.4227  157.9138 F       1  UNL1       -0.2027
@<TRIPOS>BOND
     1    17    18    2
     2    18    19    1
     3    18    15    1
     4    15    13    1
     5    13    14    2
     6    14     7    1
     7     7     8   ar
     8     8     9   ar
     9     9    10   ar
    10    10     1    1
    11     1     2   ar
    12     2     3   ar
    13     3     4   ar
    14     4    23    1
    15    23    24    2
    16    24    25    1
    17    25    27    1
    18    27    28   ar
    19    28    29   ar
    20    29    30   ar
    21    30    31    1
    22    30    32   ar
    23    32    33   ar
    24    33    34    1
    25     4     5   ar
    26     5     6   ar
    27    10    11   ar
    28    11    12   ar
    29    12     7   ar
    30     6     1   ar
    31    33    27   ar
    32    17    20    1
    33    19    21    1
    34    19    22    1
    35    15    16    1
    36    25    26    1
@<TRIPOS>MOLECULE
*****
 34 36 0 0 0
SMALL
GASTEIGER

@<TRIPOS>ATOM
      1 C         141.2332  143.8830  162.3602 C.ar    1  UNL1        0.0000
      2 C         140.2346  144.9312  161.9679 C.ar    1  UNL1        0.0000
      3 C         140.2159  145.4616  160.5649 C.ar    1  UNL1        0.0016
      4 C         141.1958  144.9437  159.5542 C.ar    1  UNL1        0.0207
      5 C         142.1944  143.8955  159.9465 C.ar    1  UNL1        0.0016
      6 C         142.2131  143.3652  161.3495 C.ar    1  UNL1        0.0000
      7 C         141.2893  142.2920  166.5692 C.ar    1  UNL1        0.0222
      8 C         142.4476  142.0300  165.6528 C.ar    1  UNL1        0.0016
      9 C         142.4289  142.5603  164.2498 C.ar    1  UNL1        0.0001
     10 C         141.2519  143.3527  163.7632 C.ar    1  UNL1        0.0000
     11 C         140.0937  143.6147  164.6795 C.ar    1  UNL1        0.0001
     12 C         140.1124  143.0843  166.0825 C.ar    1  UNL1        0.0016
     13 N         141.3887  140.2835  168.2142 N.2     1  UNL1       -0.1091
     14 C         141.3080  141.7616  167.9722 C.2     1  UNL1        0.1359
     15 N         141.4074  139.7532  169.6172 N.pl3   1  UNL1       -0.1544
     16 H         142.1202  139.1361  169.9007 H       1  UNL1        0.2922
     17 N         140.7190  140.7376  171.9209 N.pl3   1  UNL1       -0.1280
     18 C         140.3400  140.1630  170.5882 C.cat   1  UNL1        0.3997
     19 N         138.8936  139.9982  170.2264 N.pl3   1  UNL1       -0.2876
     20 H         140.0184  141.0066  172.5582 H       1  UNL1        0.3062
     21 H         138.1931  140.2671  170.8637 H       1  UNL1        0.2547
     22 H         138.6449  139.6210  169.3517 H       1  UNL1        0.2547
     23 C         141.1771  145.4741  158.1512 C.2     1  UNL1        0.1175
     24 N         139.8827  145.9108  157.5317 N.2     1  UNL1       -0.1797
     25 N         139.8640  146.4412  156.1287 N.pl3   1  UNL1       -0.2337
     26 H         140.1304  145.8607  155.3795 H       1  UNL1        0.1745
     27 C         139.4395  147.8560  155.8674 C.ar    1  UNL1        0.0925
     28 C         138.6792  148.6163  156.9132 C.ar    1  UNL1        0.0206
     29 C         138.2547  150.0310  156.6518 C.ar    1  UNL1        0.0311
     30 C         138.5905  150.6854  155.3445 C.ar    1  UNL1        0.1425
     31 F         138.1660  152.1001  155.0831 F       1  UNL1       -0.2041
     32 C         139.3508  149.9250  154.2986 C.ar    1  UNL1        0.0606
     33 C         139.7753  148.5104  154.5601 C.ar    1  UNL1        0.1570
     34 F         140.5356  147.7500  153.5142 F       1  UNL1       -0.2027
@<TRIPOS>BOND
     1    17    18    2
     2    18    19    1
     3    18    15    1
     4    15    13    1
     5    13    14    2
     6    14     7    1
     7     7     8   ar
     8     8     9   ar
     9     9    10   ar
    10    10     1    1
    11     1     2   ar
    12     2     3   ar
    13     3     4   ar
    14     4    23    1
    15    23    24    2
    16    24    25    1
    17    25    27    1
    18    27    28   ar
    19    28    29   ar
    20    29    30   ar
    21    30    31    1
    22    30    32   ar
    23    32    33   ar
    24    33    34    1
    25     4     5   ar
    26     5     6   ar
    27    10    11   ar
    28    11    12   ar
    29    12     7   ar
    30     6     1   ar
    31    33    27   ar
    32    17    20    1
    33    19    21    1
    34    19    22    1
    35    15    16    1
    36    25    26    1
@<TRIPOS>MOLECULE
*****
 34 36 0 0 0
SMALL
GASTEIGER

@<TRIPOS>ATOM
      1 C         140.1892  139.0822  162.3210 C.ar    1  UNL1        0.0000
      2 C         141.5837  139.0318  161.7709 C.ar    1  UNL1        0.0000
      3 C         141.8033  138.8241  160.3016 C.ar    1  UNL1        0.0016
      4 C         140.6284  138.6667  159.3826 C.ar    1  UNL1        0.0207
      5 C         139.2339  138.7171  159.9327 C.ar    1  UNL1        0.0016
      6 C         139.0143  138.9248  161.4019 C.ar    1  UNL1        0.0000
      7 C         139.5304  139.7056  166.7286 C.ar    1  UNL1        0.0222
      8 C         138.3622  139.4415  165.8257 C.ar    1  UNL1        0.0016
      9 C         138.5818  139.2337  164.3564 C.ar    1  UNL1        0.0001
     10 C         139.9696  139.2900  163.7902 C.ar    1  UNL1        0.0000
     11 C         141.1378  139.5541  164.6932 C.ar    1  UNL1        0.0001
     12 C         140.9182  139.7619  166.1624 C.ar    1  UNL1        0.0016
     13 N         140.4168  139.6262  169.1695 N.2     1  UNL1       -0.1091
     14 C         139.3108  139.9134  168.1979 C.2     1  UNL1        0.1359
     15 N         140.1972  139.8340  170.6387 N.pl3   1  UNL1       -0.1544
     16 H         139.5852  139.2425  171.1335 H       1  UNL1        0.2922
     17 N         142.2934  140.7221  171.8908 N.pl3   1  UNL1       -0.1280
     18 C         140.9102  140.9430  171.3542 C.cat   1  UNL1        0.3997
     19 N         140.2400  142.2730  171.5329 N.pl3   1  UNL1       -0.2876
     20 H         142.7613  141.4499  172.3604 H       1  UNL1        0.3062
     21 H         140.7079  143.0009  172.0024 H       1  UNL1        0.2547
     22 H         139.3322  142.4181  171.1807 H       1  UNL1        0.2547
     23 C         140.8480  138.4589  157.9133 C.2     1  UNL1        0.1175
     24 N         139.9835  137.4962  157.1546 N.2     1  UNL1       -0.1797
     25 N         140.2031  137.2884  155.6854 N.pl3   1  UNL1       -0.2337
     26 H         139.8515  137.9413  155.0379 H       1  UNL1        0.1745
     27 C         140.9585  136.0857  155.2026 C.ar    1  UNL1        0.0925
     28 C         141.9212  135.3879  156.1171 C.ar    1  UNL1        0.0206
     29 C         142.6766  134.1852  155.6344 C.ar    1  UNL1        0.0311
     30 C         142.4693  133.6803  154.2372 C.ar    1  UNL1        0.1425
     31 F         143.2246  132.4777  153.7545 F       1  UNL1       -0.2041
     32 C         141.5065  134.3782  153.3227 C.ar    1  UNL1        0.0606
     33 C         140.7512  135.5808  153.8055 C.ar    1  UNL1        0.1570
     34 F         139.7884  136.2786  152.8910 F       1  UNL1       -0.2027
@<TRIPOS>BOND
     1    17    18    2
     2    18    19    1
     3    18    15    1
     4    15    13    1
     5    13    14    2
     6    14     7    1
     7     7     8   ar
     8     8     9   ar
     9     9    10   ar
    10    10     1    1
    11     1     2   ar
    12     2     3   ar
    13     3     4   ar
    14     4    23    1
    15    23    24    2
    16    24    25    1
    17    25    27    1
    18    27    28   ar
    19    28    29   ar
    20    29    30   ar
    21    30    31    1
    22    30    32   ar
    23    32    33   ar
    24    33    34    1
    25     4     5   ar
    26     5     6   ar
    27    10    11   ar
    28    11    12   ar
    29    12     7   ar
    30     6     1   ar
    31    33    27   ar
    32    17    20    1
    33    19    21    1
    34    19    22    1
    35    15    16    1
    36    25    26    1
@<TRIPOS>MOLECULE
*****
 34 36 0 0 0
SMALL
GASTEIGER

@<TRIPOS>ATOM
      1 C         143.5277  140.3767  162.4013 C.ar    1  UNL1        0.0000
      2 C         143.8172  141.7493  161.8702 C.ar    1  UNL1        0.0000
      3 C         144.0711  141.9485  160.4054 C.ar    1  UNL1        0.0016
      4 C         144.0354  140.7752  159.4716 C.ar    1  UNL1        0.0207
      5 C         143.7458  139.4026  160.0027 C.ar    1  UNL1        0.0016
      6 C         143.4919  139.2034  161.4676 C.ar    1  UNL1        0.0000
      7 C         142.7661  139.7790  166.7960 C.ar    1  UNL1        0.0222
      8 C         142.8451  141.1660  166.2303 C.ar    1  UNL1        0.0016
      9 C         143.0989  141.3652  164.7654 C.ar    1  UNL1        0.0001
     10 C         143.2738  140.1775  163.8662 C.ar    1  UNL1        0.0000
     11 C         143.1949  138.7905  164.4319 C.ar    1  UNL1        0.0001
     12 C         142.9410  138.5913  165.8968 C.ar    1  UNL1        0.0016
     13 N         143.1871  140.4651  169.2662 N.2     1  UNL1       -0.1091
     14 C         142.5123  139.5798  168.2609 C.2     1  UNL1        0.1359
     15 N         142.9332  140.2659  170.7311 N.pl3   1  UNL1       -0.1544
     16 H         143.5253  139.6821  171.2583 H       1  UNL1        0.2922
     17 N         141.9281  142.3639  171.8878 N.pl3   1  UNL1       -0.1280
     18 C         141.7773  140.9561  171.3926 C.cat   1  UNL1        0.3997
     19 N         140.4707  140.2384  171.5589 N.pl3   1  UNL1       -0.2876
     20 H         141.1694  142.8169  172.3220 H       1  UNL1        0.3062
     21 H         139.7121  140.6914  171.9931 H       1  UNL1        0.2547
     22 H         140.3718  139.3144  171.2339 H       1  UNL1        0.2547
     23 C         144.2892  140.9745  158.0067 C.2     1  UNL1        0.1175
     24 N         144.6738  139.8073  157.1466 N.2     1  UNL1       -0.1797
     25 N         144.9276  140.0065  155.6817 N.pl3   1  UNL1       -0.2337
     26 H         144.6750  139.3053  155.0385 H       1  UNL1        0.1745
     27 C         145.5664  141.2742  155.1969 C.ar    1  UNL1        0.0925
     28 C         147.0371  141.4953  155.3922 C.ar    1  UNL1        0.0206
     29 C         147.6758  142.7630  154.9074 C.ar    1  UNL1        0.0311
     30 C         146.8439  143.8095  154.2271 C.ar    1  UNL1        0.1425
     31 F         147.4826  145.0771  153.7423 F       1  UNL1       -0.2041
     32 C         145.3732  143.5883  154.0318 C.ar    1  UNL1        0.0606
     33 C         144.7344  142.3207  154.5167 C.ar    1  UNL1        0.1570
     34 F         143.2637  142.0995  154.3213 F       1  UNL1       -0.2027
@<TRIPOS>BOND
     1    17    18    2
     2    18    19    1
     3    18    15    1
     4    15    13    1
     5    13    14    2
     6    14     7    1
     7     7     8   ar
     8     8     9   ar
     9     9    10   ar
    10    10     1    1
    11     1     2   ar
    12     2     3   ar
    13     3     4   ar
    14     4    23    1
    15    23    24    2
    16    24    25    1
    17    25    27    1
    18    27    28   ar
    19    28    29   ar
    20    29    30   ar
    21    30    31    1
    22    30    32   ar
    23    32    33   ar
    24    33    34    1
    25     4     5   ar
    26     5     6   ar
    27    10    11   ar
    28    11    12   ar
    29    12     7   ar
    30     6     1   ar
    31    33    27   ar
    32    17    20    1
    33    19    21    1
    34    19    22    1
    35    15    16    1
    36    25    26    1
@<TRIPOS>MOLECULE
*****
 34 36 0 0 0
SMALL
GASTEIGER

@<TRIPOS>ATOM
      1 C         142.3713  138.7007  162.8366 C.ar    1  UNL1        0.0000
      2 C         143.7150  138.6809  162.1703 C.ar    1  UNL1        0.0000
      3 C         143.8252  138.3379  160.7142 C.ar    1  UNL1        0.0016
      4 C         142.5917  138.0148  159.9244 C.ar    1  UNL1        0.0207
      5 C         141.2479  138.0346  160.5906 C.ar    1  UNL1        0.0016
      6 C         141.1377  138.3776  162.0467 C.ar    1  UNL1        0.0000
      7 C         142.0407  139.7297  167.2049 C.ar    1  UNL1        0.0222
      8 C         143.1483  138.8388  166.7259 C.ar    1  UNL1        0.0016
      9 C         143.2585  138.4959  165.2698 C.ar    1  UNL1        0.0001
     10 C         142.2611  139.0437  164.2927 C.ar    1  UNL1        0.0000
     11 C         141.1534  139.9346  164.7716 C.ar    1  UNL1        0.0001
     12 C         141.0432  140.2776  166.2277 C.ar    1  UNL1        0.0016
     13 N         143.0477  139.7259  169.5998 N.2     1  UNL1       -0.1091
     14 C         141.9305  140.0727  168.6610 C.2     1  UNL1        0.1359
     15 N         142.9375  140.0689  171.0559 N.pl3   1  UNL1       -0.1544
     16 H         143.6028  139.7242  171.6946 H       1  UNL1        0.2922
     17 N         142.0564  142.3900  171.8214 N.pl3   1  UNL1       -0.1280
     18 C         141.8136  140.9370  171.5390 C.cat   1  UNL1        0.3997
     19 N         140.4470  140.3521  171.7396 N.pl3   1  UNL1       -0.2876
     20 H         141.3188  142.9598  172.1384 H       1  UNL1        0.3062
     21 H         139.7094  140.9219  172.0566 H       1  UNL1        0.2547
     22 H         140.2877  139.3985  171.5542 H       1  UNL1        0.2547
     23 C         142.7019  137.6718  158.4683 C.2     1  UNL1        0.1175
     24 N         142.4846  138.7318  157.4295 N.2     1  UNL1       -0.1797
     25 N         142.5948  138.3888  155.9734 N.pl3   1  UNL1       -0.2337
     26 H         143.4687  138.4324  155.5222 H       1  UNL1        0.1745
     27 C         141.3734  137.9795  155.2048 C.ar    1  UNL1        0.0925
     28 C         140.1308  137.5656  155.9360 C.ar    1  UNL1        0.0206
     29 C         138.9094  137.1562  155.1674 C.ar    1  UNL1        0.0311
     30 C         138.9307  137.1608  153.6676 C.ar    1  UNL1        0.1425
     31 F         137.7094  136.7514  152.8990 F       1  UNL1       -0.2041
     32 C         140.1733  137.5746  152.9364 C.ar    1  UNL1        0.0606
     33 C         141.3946  137.9840  153.7050 C.ar    1  UNL1        0.1570
     34 F         142.6373  138.3979  152.9738 F       1  UNL1       -0.2027
@<TRIPOS>BOND
     1    17    18    2
     2    18    19    1
     3    18    15    1
     4    15    13    1
     5    13    14    2
     6    14     7    1
     7     7     8   ar
     8     8     9   ar
     9     9    10   ar
    10    10     1    1
    11     1     2   ar
    12     2     3   ar
    13     3     4   ar
    14     4    23    1
    15    23    24    2
    16    24    25    1
    17    25    27    1
    18    27    28   ar
    19    28    29   ar
    20    29    30   ar
    21    30    31    1
    22    30    32   ar
    23    32    33   ar
    24    33    34    1
    25     4     5   ar
    26     5     6   ar
    27    10    11   ar
    28    11    12   ar
    29    12     7   ar
    30     6     1   ar
    31    33    27   ar
    32    17    20    1
    33    19    21    1
    34    19    22    1
    35    15    16    1
    36    25    26    1
