@<TRIPOS>MOLECULE
*****
 39 43 0 0 0
SMALL
GASTEIGER

@<TRIPOS>ATOM
      1 C         142.9651  139.2684  161.6323 C.3     1  UNL1        0.0603
      2 C         141.6615  139.2331  162.3735 C.3     1  UNL1        0.0290
      3 C         141.6409  139.4056  163.8634 C.3     1  UNL1        0.0926
      4 N         142.9239  139.6134  164.6121 N.pl3   1  UNL1       -0.2931
      5 C         144.2276  139.6488  163.8709 C.3     1  UNL1        0.0926
      6 C         144.2481  139.4762  162.3811 C.3     1  UNL1        0.0290
      7 C         142.9033  139.7859  166.1020 C.ar    1  UNL1        0.1361
      8 N         143.0961  138.5980  166.9973 N.ar    1  UNL1       -0.2089
      9 C         143.0755  138.7705  168.4872 C.ar    1  UNL1        0.2012
     10 N         142.8622  140.1311  169.0818 N.ar    1  UNL1       -0.2094
     11 C         142.6694  141.3190  168.1865 C.ar    1  UNL1        0.1298
     12 N         142.4560  142.6795  168.7811 N.pl3   1  UNL1       -0.3425
     13 C         142.6900  141.1465  166.6966 C.ar    1  UNL1        0.0628
     14 H         142.4425  142.7927  169.7590 H       1  UNL1        0.1437
     15 H         142.3295  143.4592  168.1935 H       1  UNL1        0.1437
     16 C         142.4972  142.3344  165.8013 C.ar    1  UNL1        0.0055
     17 C         143.6890  143.0706  165.2649 C.ar    1  UNL1        0.0025
     18 C         143.4962  144.2585  164.3696 C.ar    1  UNL1        0.0296
     19 C         142.1116  144.7103  164.0107 C.ar    1  UNL1        0.1401
     20 F         141.9189  145.8983  163.1154 F       1  UNL1       -0.2042
     21 C         140.9198  143.9742  164.5471 C.ar    1  UNL1        0.0296
     22 C         141.1126  142.7863  165.4424 C.ar    1  UNL1        0.0025
     23 C         143.3290  141.6494  159.4305 C.3     1  UNL1        0.1317
     24 N         143.1529  140.1904  159.1303 N.ar    1  UNL1       -0.3117
     25 C         143.1133  139.5695  157.7654 C.ar    1  UNL1        0.0962
     26 C         142.9215  138.0914  157.9339 C.ar    1  UNL1        0.0997
     27 N         142.8426  137.7987  159.4030 N.ar    1  UNL1       -0.2309
     28 C         142.9857  139.0959  160.1424 C.ar    1  UNL1        0.1200
     29 C         142.8254  137.0830  156.8276 C.ar    1  UNL1        0.0193
     30 C         142.6478  137.5396  155.4099 C.ar    1  UNL1        0.0038
     31 C         142.5518  136.5313  154.3036 C.ar    1  UNL1        0.0296
     32 C         142.6333  135.0662  154.6150 C.ar    1  UNL1        0.1440
     33 F         142.5372  134.0578  153.5086 F       1  UNL1       -0.2042
     34 C         142.8108  134.6095  156.0327 C.ar    1  UNL1        0.0988
     35 C         142.9069  135.6179  157.1390 C.ar    1  UNL1        0.0077
     36 C         142.8923  133.1445  156.3441 C.3     1  UNL1        0.4207
     37 F         142.9738  131.6794  156.6555 F       1  UNL1       -0.1658
     38 F         144.3360  133.3044  156.7185 F       1  UNL1       -0.1658
     39 F         141.4486  132.9846  155.9696 F       1  UNL1       -0.1658
@<TRIPOS>BOND
     1    23    24    1
     2    24    25   ar
     3    25    26   ar
     4    26    29    1
     5    29    30   ar
     6    30    31   ar
     7    31    32   ar
     8    32    33    1
     9    32    34   ar
    10    34    36    1
    11    36    37    1
    12    36    38    1
    13    36    39    1
    14    34    35   ar
    15    26    27   ar
    16    27    28   ar
    17    28     1    1
    18     1     2    1
    19     2     3    1
    20     3     4    1
    21     4     7    1
    22     7     8   ar
    23     8     9   ar
    24     9    10   ar
    25    10    11   ar
    26    11    12    1
    27    11    13   ar
    28    13    16    1
    29    16    17   ar
    30    17    18   ar
    31    18    19   ar
    32    19    20    1
    33    19    21   ar
    34    21    22   ar
    35     4     5    1
    36     5     6    1
    37    28    24   ar
    38     6     1    1
    39    35    29   ar
    40    13     7   ar
    41    22    16   ar
    42    12    14    1
    43    12    15    1
@<TRIPOS>MOLECULE
*****
 39 43 0 0 0
SMALL
GASTEIGER

@<TRIPOS>ATOM
      1 C         142.9329  139.5068  160.0736 C.3     1  UNL1        0.0603
      2 C         144.1475  139.2499  160.9155 C.3     1  UNL1        0.0290
      3 C         144.3264  139.9765  162.2155 C.3     1  UNL1        0.0926
      4 N         143.2906  140.9600  162.6736 N.pl3   1  UNL1       -0.2931
      5 C         142.0760  141.2170  161.8317 C.3     1  UNL1        0.0926
      6 C         141.8972  140.4904  160.5318 C.3     1  UNL1        0.0290
      7 C         143.4695  141.6866  163.9736 C.ar    1  UNL1        0.1361
      8 N         144.4915  142.7785  164.0881 N.ar    1  UNL1       -0.2089
      9 C         144.6703  143.5052  165.3882 C.ar    1  UNL1        0.2012
     10 N         143.8271  143.1397  166.5738 N.ar    1  UNL1       -0.2094
     11 C         142.8051  142.0478  166.4593 C.ar    1  UNL1        0.1298
     12 N         141.9619  141.6825  167.6449 N.pl3   1  UNL1       -0.3425
     13 C         142.6262  141.3212  165.1592 C.ar    1  UNL1        0.0628
     14 H         142.0793  142.1594  168.4981 H       1  UNL1        0.1437
     15 H         141.2911  140.9658  167.5698 H       1  UNL1        0.1437
     16 C         141.6042  140.2293  165.0448 C.ar    1  UNL1        0.0055
     17 C         140.1477  140.5730  164.9430 C.ar    1  UNL1        0.0025
     18 C         139.1257  139.4810  164.8285 C.ar    1  UNL1        0.0296
     19 C         139.5602  138.0454  164.8158 C.ar    1  UNL1        0.1401
     20 F         138.5382  136.9534  164.7014 F       1  UNL1       -0.2042
     21 C         141.0167  137.7017  164.9176 C.ar    1  UNL1        0.0296
     22 C         142.0387  138.7936  165.0321 C.ar    1  UNL1        0.0025
     23 C         141.8586  140.8086  157.2806 C.3     1  UNL1        0.1317
     24 N         142.2603  139.3786  157.4897 N.ar    1  UNL1       -0.3117
     25 C         142.2387  138.2959  156.4518 C.ar    1  UNL1        0.0962
     26 C         142.7191  137.0284  157.0942 C.ar    1  UNL1        0.0997
     27 N         143.0377  137.3277  158.5291 N.ar    1  UNL1       -0.2309
     28 C         142.7541  138.7802  158.7736 C.ar    1  UNL1        0.1200
     29 C         142.8568  135.6955  156.4199 C.ar    1  UNL1        0.0193
     30 C         142.4852  135.5441  154.9747 C.ar    1  UNL1        0.0038
     31 C         142.6229  134.2113  154.3005 C.ar    1  UNL1        0.0296
     32 C         143.1323  133.0298  155.0716 C.ar    1  UNL1        0.1440
     33 F         143.2700  131.6969  154.3974 F       1  UNL1       -0.2042
     34 C         143.5039  133.1812  156.5169 C.ar    1  UNL1        0.0988
     35 C         143.3662  134.5140  157.1911 C.ar    1  UNL1        0.0077
     36 C         144.0133  131.9997  157.2881 C.3     1  UNL1        0.4207
     37 F         144.5227  130.8182  158.0592 F       1  UNL1       -0.1658
     38 F         145.3807  132.6151  157.3277 F       1  UNL1       -0.1658
     39 F         142.6459  131.3843  157.2484 F       1  UNL1       -0.1658
@<TRIPOS>BOND
     1    23    24    1
     2    24    25   ar
     3    25    26   ar
     4    26    29    1
     5    29    30   ar
     6    30    31   ar
     7    31    32   ar
     8    32    33    1
     9    32    34   ar
    10    34    36    1
    11    36    37    1
    12    36    38    1
    13    36    39    1
    14    34    35   ar
    15    26    27   ar
    16    27    28   ar
    17    28     1    1
    18     1     2    1
    19     2     3    1
    20     3     4    1
    21     4     7    1
    22     7     8   ar
    23     8     9   ar
    24     9    10   ar
    25    10    11   ar
    26    11    12    1
    27    11    13   ar
    28    13    16    1
    29    16    17   ar
    30    17    18   ar
    31    18    19   ar
    32    19    20    1
    33    19    21   ar
    34    21    22   ar
    35     4     5    1
    36     5     6    1
    37    28    24   ar
    38     6     1    1
    39    35    29   ar
    40    13     7   ar
    41    22    16   ar
    42    12    14    1
    43    12    15    1
@<TRIPOS>MOLECULE
*****
 39 43 0 0 0
SMALL
GASTEIGER

@<TRIPOS>ATOM
      1 C         142.6200  139.4746  158.8453 C.3     1  UNL1        0.0603
      2 C         141.2474  140.0570  159.0081 C.3     1  UNL1        0.0290
      3 C         140.9974  141.1086  160.0482 C.3     1  UNL1        0.0926
      4 N         142.1200  141.5776  160.9254 N.pl3   1  UNL1       -0.2931
      5 C         143.4928  140.9952  160.7626 C.3     1  UNL1        0.0926
      6 C         143.7427  139.9437  159.7226 C.3     1  UNL1        0.0290
      7 C         141.8700  142.6292  161.9655 C.ar    1  UNL1        0.1361
      8 N         141.9740  144.0813  161.6040 N.ar    1  UNL1       -0.2089
      9 C         141.7240  145.1328  162.6441 C.ar    1  UNL1        0.2012
     10 N         141.3700  144.7323  164.0457 N.ar    1  UNL1       -0.2094
     11 C         141.2659  143.2802  164.4071 C.ar    1  UNL1        0.1298
     12 N         140.9119  142.8797  165.8086 N.pl3   1  UNL1       -0.3425
     13 C         141.5160  142.2286  163.3670 C.ar    1  UNL1        0.0628
     14 H         140.7478  143.5699  166.4912 H       1  UNL1        0.1437
     15 H         140.8437  141.9267  166.0459 H       1  UNL1        0.1437
     16 C         141.4119  140.7766  163.7285 C.ar    1  UNL1        0.0055
     17 C         140.1048  140.0571  163.5744 C.ar    1  UNL1        0.0025
     18 C         140.0008  138.6051  163.9358 C.ar    1  UNL1        0.0296
     19 C         141.2039  137.8724  164.4514 C.ar    1  UNL1        0.1401
     20 F         141.0999  136.4204  164.8128 F       1  UNL1       -0.2042
     21 C         142.5111  138.5919  164.6055 C.ar    1  UNL1        0.0296
     22 C         142.6151  140.0439  164.2440 C.ar    1  UNL1        0.0025
     23 C         144.0171  139.9495  155.9345 C.3     1  UNL1        0.1317
     24 N         143.5122  138.6413  156.4673 N.ar    1  UNL1       -0.3117
     25 C         143.5608  137.3218  155.7557 C.ar    1  UNL1        0.0962
     26 C         142.9487  136.2879  156.6538 C.ar    1  UNL1        0.0997
     27 N         142.5218  136.9686  157.9205 N.ar    1  UNL1       -0.2309
     28 C         142.8700  138.4230  157.8052 C.ar    1  UNL1        0.1200
     29 C         142.7912  134.8295  156.3402 C.ar    1  UNL1        0.0193
     30 C         141.7699  134.3844  155.3359 C.ar    1  UNL1        0.0038
     31 C         141.6124  132.9260  155.0224 C.ar    1  UNL1        0.0296
     32 C         142.4763  131.9128  155.7132 C.ar    1  UNL1        0.1440
     33 F         142.3187  130.4544  155.3996 F       1  UNL1       -0.2042
     34 C         143.4975  132.3579  156.7175 C.ar    1  UNL1        0.0988
     35 C         143.6550  133.8163  157.0311 C.ar    1  UNL1        0.0077
     36 C         144.3613  131.3447  157.4084 C.3     1  UNL1        0.4207
     37 F         145.2251  130.3315  158.0992 F       1  UNL1       -0.1658
     38 F         143.1371  130.6818  157.9668 F       1  UNL1       -0.1658
     39 F         145.5855  132.0077  156.8500 F       1  UNL1       -0.1658
@<TRIPOS>BOND
     1    23    24    1
     2    24    25   ar
     3    25    26   ar
     4    26    29    1
     5    29    30   ar
     6    30    31   ar
     7    31    32   ar
     8    32    33    1
     9    32    34   ar
    10    34    36    1
    11    36    37    1
    12    36    38    1
    13    36    39    1
    14    34    35   ar
    15    26    27   ar
    16    27    28   ar
    17    28     1    1
    18     1     2    1
    19     2     3    1
    20     3     4    1
    21     4     7    1
    22     7     8   ar
    23     8     9   ar
    24     9    10   ar
    25    10    11   ar
    26    11    12    1
    27    11    13   ar
    28    13    16    1
    29    16    17   ar
    30    17    18   ar
    31    18    19   ar
    32    19    20    1
    33    19    21   ar
    34    21    22   ar
    35     4     5    1
    36     5     6    1
    37    28    24   ar
    38     6     1    1
    39    35    29   ar
    40    13     7   ar
    41    22    16   ar
    42    12    14    1
    43    12    15    1
@<TRIPOS>MOLECULE
*****
 39 43 0 0 0
SMALL
GASTEIGER

@<TRIPOS>ATOM
      1 C         142.2792  143.3353  163.3190 C.3     1  UNL1        0.0603
      2 C         141.1185  143.3108  164.2688 C.3     1  UNL1        0.0290
      3 C         141.3175  142.8573  165.6847 C.3     1  UNL1        0.0926
      4 N         142.6772  142.4284  166.1507 N.pl3   1  UNL1       -0.2931
      5 C         143.8379  142.4529  165.2008 C.3     1  UNL1        0.0926
      6 C         143.6389  142.9064  163.7850 C.3     1  UNL1        0.0290
      7 C         142.8762  141.9749  167.5666 C.ar    1  UNL1        0.1361
      8 N         143.7302  142.7814  168.4994 N.ar    1  UNL1       -0.2089
      9 C         143.9292  142.3280  169.9153 C.ar    1  UNL1        0.2012
     10 N         143.2742  141.0679  170.3984 N.ar    1  UNL1       -0.2094
     11 C         142.4202  140.2614  169.4656 C.ar    1  UNL1        0.1298
     12 N         141.7652  139.0013  169.9487 N.pl3   1  UNL1       -0.3425
     13 C         142.2212  140.7148  168.0497 C.ar    1  UNL1        0.0628
     14 H         141.8958  138.7037  170.8780 H       1  UNL1        0.1437
     15 H         141.2047  138.4720  169.3364 H       1  UNL1        0.1437
     16 C         141.3672  139.9083  167.1168 C.ar    1  UNL1        0.0055
     17 C         139.8723  139.9811  167.2165 C.ar    1  UNL1        0.0025
     18 C         139.0183  139.1746  166.2837 C.ar    1  UNL1        0.0296
     19 C         139.6592  138.2953  165.2512 C.ar    1  UNL1        0.1401
     20 F         138.8052  137.4887  164.3184 F       1  UNL1       -0.2042
     21 C         141.1541  138.2225  165.1515 C.ar    1  UNL1        0.0296
     22 C         142.0081  139.0290  166.0843 C.ar    1  UNL1        0.0025
     23 C         140.2507  145.6912  162.3265 C.3     1  UNL1        0.1317
     24 N         141.1478  144.8717  161.4469 N.ar    1  UNL1       -0.3117
     25 C         141.2700  144.9912  159.9567 C.ar    1  UNL1        0.0962
     26 C         142.2778  143.9821  159.4918 C.ar    1  UNL1        0.0997
     27 N         142.7785  143.2390  160.6948 N.ar    1  UNL1       -0.2309
     28 C         142.0801  143.7888  161.9031 C.ar    1  UNL1        0.1200
     29 C         142.7092  143.7559  158.0731 C.ar    1  UNL1        0.0193
     30 C         142.1216  144.5843  156.9693 C.ar    1  UNL1        0.0038
     31 C         142.5530  144.3581  155.5506 C.ar    1  UNL1        0.0296
     32 C         143.5720  143.3034  155.2357 C.ar    1  UNL1        0.1440
     33 F         144.0034  143.0772  153.8170 F       1  UNL1       -0.2042
     34 C         144.1597  142.4750  156.3395 C.ar    1  UNL1        0.0988
     35 C         143.7283  142.7012  157.7581 C.ar    1  UNL1        0.0077
     36 C         145.1787  141.4203  156.0246 C.3     1  UNL1        0.4207
     37 F         146.1978  140.3656  155.7096 F       1  UNL1       -0.1658
     38 F         144.1558  140.3544  156.2841 F       1  UNL1       -0.1658
     39 F         146.2017  142.4862  155.7650 F       1  UNL1       -0.1658
@<TRIPOS>BOND
     1    23    24    1
     2    24    25   ar
     3    25    26   ar
     4    26    29    1
     5    29    30   ar
     6    30    31   ar
     7    31    32   ar
     8    32    33    1
     9    32    34   ar
    10    34    36    1
    11    36    37    1
    12    36    38    1
    13    36    39    1
    14    34    35   ar
    15    26    27   ar
    16    27    28   ar
    17    28     1    1
    18     1     2    1
    19     2     3    1
    20     3     4    1
    21     4     7    1
    22     7     8   ar
    23     8     9   ar
    24     9    10   ar
    25    10    11   ar
    26    11    12    1
    27    11    13   ar
    28    13    16    1
    29    16    17   ar
    30    17    18   ar
    31    18    19   ar
    32    19    20    1
    33    19    21   ar
    34    21    22   ar
    35     4     5    1
    36     5     6    1
    37    28    24   ar
    38     6     1    1
    39    35    29   ar
    40    13     7   ar
    41    22    16   ar
    42    12    14    1
    43    12    15    1
@<TRIPOS>MOLECULE
*****
 39 43 0 0 0
SMALL
GASTEIGER

@<TRIPOS>ATOM
      1 C         139.7794  140.9325  161.5614 C.3     1  UNL1        0.0603
      2 C         140.0324  139.5630  162.1186 C.3     1  UNL1        0.0290
      3 C         140.1854  139.3719  163.5985 C.3     1  UNL1        0.0926
      4 N         140.0854  140.5502  164.5212 N.pl3   1  UNL1       -0.2931
      5 C         139.8323  141.9198  163.9640 C.3     1  UNL1        0.0926
      6 C         139.6794  142.1108  162.4842 C.3     1  UNL1        0.0290
      7 C         140.2383  140.3591  166.0011 C.ar    1  UNL1        0.1361
      8 N         139.0393  140.0402  166.8440 N.ar    1  UNL1       -0.2089
      9 C         139.1923  139.8491  168.3239 C.ar    1  UNL1        0.2012
     10 N         140.5443  139.9769  168.9609 N.ar    1  UNL1       -0.2094
     11 C         141.7434  140.2959  168.1179 C.ar    1  UNL1        0.1298
     12 N         143.0954  140.4237  168.7549 N.pl3   1  UNL1       -0.3425
     13 C         141.5904  140.4870  166.6380 C.ar    1  UNL1        0.0628
     14 H         143.1958  140.2983  169.7262 H       1  UNL1        0.1437
     15 H         143.8824  140.6331  168.2017 H       1  UNL1        0.1437
     16 C         142.7894  140.8060  165.7951 C.ar    1  UNL1        0.0055
     17 C         143.1910  142.2339  165.5721 C.ar    1  UNL1        0.0025
     18 C         144.3901  142.5528  164.7292 C.ar    1  UNL1        0.0296
     19 C         145.1875  141.4439  164.1092 C.ar    1  UNL1        0.1401
     20 F         146.3865  141.7628  163.2663 F       1  UNL1       -0.2042
     21 C         144.7859  140.0159  164.3322 C.ar    1  UNL1        0.0296
     22 C         143.5869  139.6970  165.1751 C.ar    1  UNL1        0.0025
     23 C         142.2080  141.1045  159.3884 C.3     1  UNL1        0.1317
     24 N         140.7428  141.2027  159.0827 N.ar    1  UNL1       -0.3117
     25 C         140.1366  141.3971  157.7245 C.ar    1  UNL1        0.0962
     26 C         138.6456  141.4382  157.8839 C.ar    1  UNL1        0.0997
     27 N         138.3304  141.2691  159.3406 N.ar    1  UNL1       -0.2309
     28 C         139.6265  141.1236  160.0815 C.ar    1  UNL1        0.1200
     29 C         137.6455  141.6169  156.7803 C.ar    1  UNL1        0.0193
     30 C         137.8986  142.6197  155.6939 C.ar    1  UNL1        0.0038
     31 C         136.8986  142.7985  154.5904 C.ar    1  UNL1        0.0296
     32 C         135.6453  141.9744  154.5732 C.ar    1  UNL1        0.1440
     33 F         134.6452  142.1531  153.4696 F       1  UNL1       -0.2042
     34 C         135.3922  140.9716  155.6596 C.ar    1  UNL1        0.0988
     35 C         136.3923  140.7929  156.7632 C.ar    1  UNL1        0.0077
     36 C         134.1389  140.1475  155.6425 C.3     1  UNL1        0.4207
     37 F         132.8857  139.3235  155.6253 F       1  UNL1       -0.1658
     38 F         133.3425  141.3501  156.0542 F       1  UNL1       -0.1658
     39 F         134.9353  138.9449  155.2308 F       1  UNL1       -0.1658
@<TRIPOS>BOND
     1    23    24    1
     2    24    25   ar
     3    25    26   ar
     4    26    29    1
     5    29    30   ar
     6    30    31   ar
     7    31    32   ar
     8    32    33    1
     9    32    34   ar
    10    34    36    1
    11    36    37    1
    12    36    38    1
    13    36    39    1
    14    34    35   ar
    15    26    27   ar
    16    27    28   ar
    17    28     1    1
    18     1     2    1
    19     2     3    1
    20     3     4    1
    21     4     7    1
    22     7     8   ar
    23     8     9   ar
    24     9    10   ar
    25    10    11   ar
    26    11    12    1
    27    11    13   ar
    28    13    16    1
    29    16    17   ar
    30    17    18   ar
    31    18    19   ar
    32    19    20    1
    33    19    21   ar
    34    21    22   ar
    35     4     5    1
    36     5     6    1
    37    28    24   ar
    38     6     1    1
    39    35    29   ar
    40    13     7   ar
    41    22    16   ar
    42    12    14    1
    43    12    15    1
@<TRIPOS>MOLECULE
*****
 39 43 0 0 0
SMALL
GASTEIGER

@<TRIPOS>ATOM
      1 C         142.5702  139.4974  158.9645 C.3     1  UNL1        0.0603
      2 C         141.1761  139.9886  159.2198 C.3     1  UNL1        0.0290
      3 C         140.9306  141.0419  160.2593 C.3     1  UNL1        0.0926
      4 N         142.0792  141.6038  161.0434 N.pl3   1  UNL1       -0.2931
      5 C         143.4734  141.1125  160.7881 C.3     1  UNL1        0.0926
      6 C         143.7188  140.0594  159.7487 C.3     1  UNL1        0.0290
      7 C         141.8337  142.6570  162.0829 C.ar    1  UNL1        0.1361
      8 N         141.9167  144.1085  161.7141 N.ar    1  UNL1       -0.2089
      9 C         141.6712  145.1617  162.7536 C.ar    1  UNL1        0.2012
     10 N         141.3427  144.7633  164.1620 N.ar    1  UNL1       -0.2094
     11 C         141.2597  143.3117  164.5308 C.ar    1  UNL1        0.1298
     12 N         140.9312  142.9134  165.9391 N.pl3   1  UNL1       -0.3425
     13 C         141.5052  142.2585  163.4913 C.ar    1  UNL1        0.0628
     14 H         140.7701  143.6047  166.6214 H       1  UNL1        0.1437
     15 H         140.8768  141.9607  166.1812 H       1  UNL1        0.1437
     16 C         141.4222  140.8070  163.8601 C.ar    1  UNL1        0.0055
     17 C         140.1102  140.0851  163.7740 C.ar    1  UNL1        0.0025
     18 C         140.0272  138.6336  164.1428 C.ar    1  UNL1        0.0296
     19 C         141.2562  137.9039  164.5978 C.ar    1  UNL1        0.1401
     20 F         141.1733  136.4523  164.9667 F       1  UNL1       -0.2042
     21 C         142.5683  138.6257  164.6840 C.ar    1  UNL1        0.0296
     22 C         142.6513  140.0773  164.3152 C.ar    1  UNL1        0.0025
     23 C         143.6342  140.0152  155.9232 C.3     1  UNL1        0.1317
     24 N         143.3047  138.6822  156.5270 N.ar    1  UNL1       -0.3117
     25 C         143.4065  137.3532  155.8391 C.ar    1  UNL1        0.0962
     26 C         142.9804  136.2938  156.8118 C.ar    1  UNL1        0.0997
     27 N         142.6152  136.9681  158.1009 N.ar    1  UNL1       -0.2309
     28 C         142.8157  138.4442  157.9250 C.ar    1  UNL1        0.1200
     29 C         142.9285  134.8191  156.5425 C.ar    1  UNL1        0.0193
     30 C         143.7262  133.8733  157.3905 C.ar    1  UNL1        0.0038
     31 C         143.6743  132.3987  157.1212 C.ar    1  UNL1        0.0296
     32 C         142.8247  131.8697  156.0040 C.ar    1  UNL1        0.1440
     33 F         142.7728  130.3949  155.7347 F       1  UNL1       -0.2042
     34 C         142.0269  132.8154  155.1560 C.ar    1  UNL1        0.0988
     35 C         142.0788  134.2901  155.4253 C.ar    1  UNL1        0.0077
     36 C         141.1773  132.2865  154.0387 C.3     1  UNL1        0.4207
     37 F         140.3276  131.7575  152.9215 F       1  UNL1       -0.1658
     38 F         140.2542  131.6563  155.0391 F       1  UNL1       -0.1658
     39 F         142.1004  132.9166  153.0384 F       1  UNL1       -0.1658
@<TRIPOS>BOND
     1    23    24    1
     2    24    25   ar
     3    25    26   ar
     4    26    29    1
     5    29    30   ar
     6    30    31   ar
     7    31    32   ar
     8    32    33    1
     9    32    34   ar
    10    34    36    1
    11    36    37    1
    12    36    38    1
    13    36    39    1
    14    34    35   ar
    15    26    27   ar
    16    27    28   ar
    17    28     1    1
    18     1     2    1
    19     2     3    1
    20     3     4    1
    21     4     7    1
    22     7     8   ar
    23     8     9   ar
    24     9    10   ar
    25    10    11   ar
    26    11    12    1
    27    11    13   ar
    28    13    16    1
    29    16    17   ar
    30    17    18   ar
    31    18    19   ar
    32    19    20    1
    33    19    21   ar
    34    21    22   ar
    35     4     5    1
    36     5     6    1
    37    28    24   ar
    38     6     1    1
    39    35    29   ar
    40    13     7   ar
    41    22    16   ar
    42    12    14    1
    43    12    15    1
@<TRIPOS>MOLECULE
*****
 39 43 0 0 0
SMALL
GASTEIGER

@<TRIPOS>ATOM
      1 C         142.3125  139.0344  157.3078 C.3     1  UNL1        0.0603
      2 C         141.1811  139.8201  156.7139 C.3     1  UNL1        0.0290
      3 C         140.7305  141.0945  157.3642 C.3     1  UNL1        0.0926
      4 N         141.4113  141.5831  158.6082 N.pl3   1  UNL1       -0.2931
      5 C         142.5427  140.7974  159.2021 C.3     1  UNL1        0.0926
      6 C         142.9932  139.5231  158.5518 C.3     1  UNL1        0.0290
      7 C         140.9607  142.8576  159.2585 C.ar    1  UNL1        0.1361
      8 N         141.5270  144.1710  158.8068 N.ar    1  UNL1       -0.2089
      9 C         141.0764  145.4455  159.4570 C.ar    1  UNL1        0.2012
     10 N         140.0594  145.4064  160.5590 N.ar    1  UNL1       -0.2094
     11 C         139.4931  144.0929  161.0107 C.ar    1  UNL1        0.1298
     12 N         138.4762  144.0539  162.1127 N.pl3   1  UNL1       -0.3425
     13 C         139.9437  142.8185  160.3605 C.ar    1  UNL1        0.0628
     14 H         138.1804  144.8903  162.5394 H       1  UNL1        0.1437
     15 H         138.1044  143.1918  162.4092 H       1  UNL1        0.1437
     16 C         139.3774  141.5050  160.8122 C.ar    1  UNL1        0.0055
     17 C         140.0259  140.7563  161.9386 C.ar    1  UNL1        0.0025
     18 C         139.4595  139.4429  162.3903 C.ar    1  UNL1        0.0296
     19 C         138.2447  138.8781  161.7155 C.ar    1  UNL1        0.1401
     20 F         137.6783  137.5646  162.1672 F       1  UNL1       -0.2042
     21 C         137.5962  139.6268  160.5891 C.ar    1  UNL1        0.0296
     22 C         138.1625  140.9403  160.1374 C.ar    1  UNL1        0.0025
     23 C         144.8214  138.7161  155.2452 C.3     1  UNL1        0.1317
     24 N         143.9163  137.6137  155.7094 N.ar    1  UNL1       -0.3117
     25 C         144.0055  136.1714  155.3072 C.ar    1  UNL1        0.0962
     26 C         142.9075  135.4263  156.0066 C.ar    1  UNL1        0.0997
     27 N         142.1396  136.4081  156.8411 N.ar    1  UNL1       -0.2309
     28 C         142.7631  137.7599  156.6575 C.ar    1  UNL1        0.1200
     29 C         142.6266  133.9573  155.8916 C.ar    1  UNL1        0.0193
     30 C         141.4157  133.4814  155.1451 C.ar    1  UNL1        0.0038
     31 C         141.1349  132.0124  155.0301 C.ar    1  UNL1        0.0296
     32 C         142.0650  131.0193  155.6617 C.ar    1  UNL1        0.1440
     33 F         141.7841  129.5503  155.5467 F       1  UNL1       -0.2042
     34 C         143.2759  131.4952  156.4081 C.ar    1  UNL1        0.0988
     35 C         143.5567  132.9642  156.5231 C.ar    1  UNL1        0.0077
     36 C         144.2059  130.5022  157.0396 C.3     1  UNL1        0.4207
     37 F         145.1360  129.5091  157.6712 F       1  UNL1       -0.1658
     38 F         143.1408  130.1342  158.0297 F       1  UNL1       -0.1658
     39 F         145.2710  130.8701  156.0496 F       1  UNL1       -0.1658
@<TRIPOS>BOND
     1    23    24    1
     2    24    25   ar
     3    25    26   ar
     4    26    29    1
     5    29    30   ar
     6    30    31   ar
     7    31    32   ar
     8    32    33    1
     9    32    34   ar
    10    34    36    1
    11    36    37    1
    12    36    38    1
    13    36    39    1
    14    34    35   ar
    15    26    27   ar
    16    27    28   ar
    17    28     1    1
    18     1     2    1
    19     2     3    1
    20     3     4    1
    21     4     7    1
    22     7     8   ar
    23     8     9   ar
    24     9    10   ar
    25    10    11   ar
    26    11    12    1
    27    11    13   ar
    28    13    16    1
    29    16    17   ar
    30    17    18   ar
    31    18    19   ar
    32    19    20    1
    33    19    21   ar
    34    21    22   ar
    35     4     5    1
    36     5     6    1
    37    28    24   ar
    38     6     1    1
    39    35    29   ar
    40    13     7   ar
    41    22    16   ar
    42    12    14    1
    43    12    15    1
@<TRIPOS>MOLECULE
*****
 39 43 0 0 0
SMALL
GASTEIGER

@<TRIPOS>ATOM
      1 C         141.5710  139.5592  161.2477 C.3     1  UNL1        0.0603
      2 C         142.6339  140.4434  161.8293 C.3     1  UNL1        0.0290
      3 C         142.6940  140.6689  163.3110 C.3     1  UNL1        0.0926
      4 N         141.6912  140.0102  164.2111 N.pl3   1  UNL1       -0.2931
      5 C         140.6281  139.1259  163.6295 C.3     1  UNL1        0.0926
      6 C         140.5681  138.9005  162.1479 C.3     1  UNL1        0.0290
      7 C         141.7513  140.2356  165.6929 C.ar    1  UNL1        0.1361
      8 N         142.5418  139.3031  166.5619 N.ar    1  UNL1       -0.2089
      9 C         142.6019  139.5285  168.0437 C.ar    1  UNL1        0.2012
     10 N         141.8714  140.6866  168.6564 N.ar    1  UNL1       -0.2094
     11 C         141.0809  141.6192  167.7873 C.ar    1  UNL1        0.1298
     12 N         140.3504  142.7772  168.4000 N.pl3   1  UNL1       -0.3425
     13 C         141.0208  141.3937  166.3055 C.ar    1  UNL1        0.0628
     14 H         140.3899  142.9252  169.3725 H       1  UNL1        0.1437
     15 H         139.8315  143.3893  167.8296 H       1  UNL1        0.1437
     16 C         140.2302  142.3263  165.4364 C.ar    1  UNL1        0.0055
     17 C         140.8601  143.5863  164.9211 C.ar    1  UNL1        0.0025
     18 C         140.0696  144.5189  164.0520 C.ar    1  UNL1        0.0296
     19 C         138.6491  144.1915  163.6983 C.ar    1  UNL1        0.1401
     20 F         137.8586  145.1240  162.8292 F       1  UNL1       -0.2042
     21 C         138.0192  142.9315  164.2136 C.ar    1  UNL1        0.0296
     22 C         138.8097  141.9989  165.0827 C.ar    1  UNL1        0.0025
     23 C         140.6457  141.7475  159.0104 C.3     1  UNL1        0.1317
     24 N         141.0855  140.3396  158.7376 N.ar    1  UNL1       -0.3117
     25 C         141.1773  139.6904  157.3885 C.ar    1  UNL1        0.0962
     26 C         141.6594  138.2833  157.5831 C.ar    1  UNL1        0.0997
     27 N         141.8655  138.0629  159.0524 N.ar    1  UNL1       -0.2309
     28 C         141.5109  139.3338  159.7659 C.ar    1  UNL1        0.1200
     29 C         141.8941  137.2738  156.4986 C.ar    1  UNL1        0.0193
     30 C         141.7742  137.6779  155.0591 C.ar    1  UNL1        0.0038
     31 C         142.0089  136.6685  153.9747 C.ar    1  UNL1        0.0296
     32 C         142.3635  135.2549  154.3299 C.ar    1  UNL1        0.1440
     33 F         142.5982  134.2455  153.2454 F       1  UNL1       -0.2042
     34 C         142.4834  134.8508  155.7694 C.ar    1  UNL1        0.0988
     35 C         142.2487  135.8603  156.8538 C.ar    1  UNL1        0.0077
     36 C         142.8380  133.4373  156.1246 C.3     1  UNL1        0.4207
     37 F         143.1926  132.0237  156.4797 F       1  UNL1       -0.1658
     38 F         144.2389  133.8687  156.4429 F       1  UNL1       -0.1658
     39 F         141.4371  133.0059  155.8063 F       1  UNL1       -0.1658
@<TRIPOS>BOND
     1    23    24    1
     2    24    25   ar
     3    25    26   ar
     4    26    29    1
     5    29    30   ar
     6    30    31   ar
     7    31    32   ar
     8    32    33    1
     9    32    34   ar
    10    34    36    1
    11    36    37    1
    12    36    38    1
    13    36    39    1
    14    34    35   ar
    15    26    27   ar
    16    27    28   ar
    17    28     1    1
    18     1     2    1
    19     2     3    1
    20     3     4    1
    21     4     7    1
    22     7     8   ar
    23     8     9   ar
    24     9    10   ar
    25    10    11   ar
    26    11    12    1
    27    11    13   ar
    28    13    16    1
    29    16    17   ar
    30    17    18   ar
    31    18    19   ar
    32    19    20    1
    33    19    21   ar
    34    21    22   ar
    35     4     5    1
    36     5     6    1
    37    28    24   ar
    38     6     1    1
    39    35    29   ar
    40    13     7   ar
    41    22    16   ar
    42    12    14    1
    43    12    15    1
@<TRIPOS>MOLECULE
*****
 39 43 0 0 0
SMALL
GASTEIGER

@<TRIPOS>ATOM
      1 C         142.2044  139.1857  158.9520 C.3     1  UNL1        0.0603
      2 C         141.2007  140.2448  159.2996 C.3     1  UNL1        0.0290
      3 C         141.5232  141.2687  160.3474 C.3     1  UNL1        0.0926
      4 N         142.8493  141.2334  161.0474 N.pl3   1  UNL1       -0.2931
      5 C         143.8530  140.1742  160.6998 C.3     1  UNL1        0.0926
      6 C         143.5305  139.1504  159.6521 C.3     1  UNL1        0.0290
      7 C         143.1718  142.2572  162.0952 C.ar    1  UNL1        0.1361
      8 N         143.8441  143.5409  161.7076 N.ar    1  UNL1       -0.2089
      9 C         144.1666  144.5647  162.7554 C.ar    1  UNL1        0.2012
     10 N         143.8167  144.3049  164.1907 N.ar    1  UNL1       -0.2094
     11 C         143.1443  143.0212  164.5783 C.ar    1  UNL1        0.1298
     12 N         142.7945  142.7615  166.0136 N.pl3   1  UNL1       -0.3425
     13 C         142.8219  141.9974  163.5305 C.ar    1  UNL1        0.0628
     14 H         143.0061  143.4335  166.7012 H       1  UNL1        0.1437
     15 H         142.3532  141.9190  166.2680 H       1  UNL1        0.1437
     16 C         142.1496  140.7137  163.9181 C.ar    1  UNL1        0.0055
     17 C         142.9739  139.5281  164.3238 C.ar    1  UNL1        0.0025
     18 C         142.3016  138.2445  164.7114 C.ar    1  UNL1        0.0296
     19 C         140.8049  138.1465  164.6932 C.ar    1  UNL1        0.1401
     20 F         140.1326  136.8628  165.0808 F       1  UNL1       -0.2042
     21 C         139.9805  139.3321  164.2875 C.ar    1  UNL1        0.0296
     22 C         140.6528  140.6158  163.8999 C.ar    1  UNL1        0.0025
     23 C         139.7222  139.3208  156.8377 C.3     1  UNL1        0.1317
     24 N         140.7410  138.2240  156.9324 N.ar    1  UNL1       -0.3117
     25 C         140.7977  136.9966  156.0720 C.ar    1  UNL1        0.0962
     26 C         141.9737  136.1760  156.5120 C.ar    1  UNL1        0.0997
     27 N         142.6438  136.8961  157.6444 N.ar    1  UNL1       -0.2309
     28 C         141.8819  138.1618  157.9043 C.ar    1  UNL1        0.1200
     29 C         142.4040  134.8652  155.9229 C.ar    1  UNL1        0.0193
     30 C         142.1124  134.5578  154.4841 C.ar    1  UNL1        0.0038
     31 C         142.5428  133.2471  153.8951 C.ar    1  UNL1        0.0296
     32 C         143.2647  132.2439  154.7450 C.ar    1  UNL1        0.1440
     33 F         143.6950  130.9332  154.1560 F       1  UNL1       -0.2042
     34 C         143.5563  132.5513  156.1839 C.ar    1  UNL1        0.0988
     35 C         143.1260  133.8620  156.7729 C.ar    1  UNL1        0.0077
     36 C         144.2782  131.5481  157.0338 C.3     1  UNL1        0.4207
     37 F         145.0002  130.5449  157.8837 F       1  UNL1       -0.1658
     38 F         145.5915  132.0505  156.5113 F       1  UNL1       -0.1658
     39 F         142.9650  131.0458  157.5564 F       1  UNL1       -0.1658
@<TRIPOS>BOND
     1    23    24    1
     2    24    25   ar
     3    25    26   ar
     4    26    29    1
     5    29    30   ar
     6    30    31   ar
     7    31    32   ar
     8    32    33    1
     9    32    34   ar
    10    34    36    1
    11    36    37    1
    12    36    38    1
    13    36    39    1
    14    34    35   ar
    15    26    27   ar
    16    27    28   ar
    17    28     1    1
    18     1     2    1
    19     2     3    1
    20     3     4    1
    21     4     7    1
    22     7     8   ar
    23     8     9   ar
    24     9    10   ar
    25    10    11   ar
    26    11    12    1
    27    11    13   ar
    28    13    16    1
    29    16    17   ar
    30    17    18   ar
    31    18    19   ar
    32    19    20    1
    33    19    21   ar
    34    21    22   ar
    35     4     5    1
    36     5     6    1
    37    28    24   ar
    38     6     1    1
    39    35    29   ar
    40    13     7   ar
    41    22    16   ar
    42    12    14    1
    43    12    15    1
