@<TRIPOS>MOLECULE
*****
 28 30 0 0 0
SMALL
GASTEIGER

@<TRIPOS>ATOM
      1 C         140.0389  141.1585  166.8095 C.2     1  UNL1        0.2293
      2 O         140.8337  142.3520  167.2497 O.2     1  UNL1       -0.2745
      3 N         139.3077  141.1857  165.5001 N.am    1  UNL1       -0.2589
      4 C         138.5129  139.9922  165.0600 C.3     1  UNL1        0.0985
      5 C         137.7817  140.0194  163.7505 C.3     1  UNL1        0.0266
      6 C         137.8453  141.2401  162.8812 C.3     1  UNL1        0.0294
      7 C         138.6401  142.4336  163.3214 C.ar    1  UNL1       -0.0087
      8 C         138.7038  143.6545  162.4521 C.ar    1  UNL1       -0.0057
      9 C         139.4986  144.8480  162.8922 C.ar    1  UNL1       -0.0028
     10 C         140.2298  144.8208  164.2016 C.ar    1  UNL1       -0.0014
     11 C         140.1661  143.6001  165.0709 C.ar    1  UNL1        0.0143
     12 C         139.3713  142.4064  164.6308 C.ar    1  UNL1        0.0498
     13 C         139.9753  139.9378  167.6788 C.3     1  UNL1        0.0856
     14 C         141.3710  139.6999  169.8573 C.3     1  UNL1        0.0005
     15 C         140.0912  140.0709  169.1684 C.3     1  UNL1        0.0091
     16 C         138.9273  140.5750  169.9691 C.3     1  UNL1        0.0005
     17 C         139.5622  146.0688  162.0229 C.3     1  UNL1        0.1166
     18 N         139.7628  145.9263  160.5432 N.am    1  UNL1       -0.2969
     19 C         141.0356  145.3364  160.0124 C.2     1  UNL1        0.2461
     20 O         142.1079  144.8890  160.9612 O.2     1  UNL1       -0.2701
     21 H         139.0591  146.2199  159.9205 H       1  UNL1        0.1501
     22 C         141.2363  145.1938  158.5327 C.ar    1  UNL1        0.0534
     23 C         140.3661  145.9595  157.5806 C.ar    1  UNL1        0.0054
     24 C         140.5667  145.8169  156.1010 C.ar    1  UNL1        0.0115
     25 C         141.6376  144.9087  155.5734 C.ar    1  UNL1        0.0577
     26 CL        141.8382  144.7662  154.0937 Cl      1  UNL1       -0.0822
     27 C         142.5078  144.1431  156.5254 C.ar    1  UNL1        0.0115
     28 C         142.3072  144.2856  158.0051 C.ar    1  UNL1        0.0054
@<TRIPOS>BOND
     1    14    15    1
     2    15    16    1
     3    15    13    1
     4    13     1    1
     5     1     2    2
     6     1     3   am
     7     3     4    1
     8     4     5    1
     9     5     6    1
    10     6     7    1
    11     7     8   ar
    12     8     9   ar
    13     9    17    1
    14    17    18    1
    15    18    19   am
    16    19    20    2
    17    19    22    1
    18    22    23   ar
    19    23    24   ar
    20    24    25   ar
    21    25    26    1
    22    25    27   ar
    23    27    28   ar
    24     9    10   ar
    25    10    11   ar
    26    11    12   ar
    27    12     3    1
    28    12     7   ar
    29    28    22   ar
    30    18    21    1
@<TRIPOS>MOLECULE
*****
 28 30 0 0 0
SMALL
GASTEIGER

@<TRIPOS>ATOM
      1 C         140.9094  140.9246  167.7447 C.2     1  UNL1        0.2293
      2 O         142.2979  141.4352  167.4975 O.2     1  UNL1       -0.2745
      3 N         140.3026  139.9193  166.8113 N.am    1  UNL1       -0.2589
      4 C         138.9141  139.4087  167.0585 C.3     1  UNL1        0.0985
      5 C         138.3073  138.4035  166.1250 C.3     1  UNL1        0.0266
      6 C         139.0892  137.9088  164.9443 C.3     1  UNL1        0.0294
      7 C         140.4777  138.4194  164.6971 C.ar    1  UNL1       -0.0087
      8 C         141.2596  137.9247  163.5164 C.ar    1  UNL1       -0.0057
      9 C         142.6482  138.4353  163.2692 C.ar    1  UNL1       -0.0028
     10 C         143.2549  139.4406  164.2027 C.ar    1  UNL1       -0.0014
     11 C         142.4731  139.9352  165.3833 C.ar    1  UNL1        0.0143
     12 C         141.0845  139.4247  165.6306 C.ar    1  UNL1        0.0498
     13 C         140.1276  141.4192  168.9254 C.3     1  UNL1        0.0856
     14 C         141.6936  141.8658  170.9498 C.3     1  UNL1        0.0005
     15 C         140.7572  142.3754  169.8945 C.3     1  UNL1        0.0091
     16 C         140.4505  143.8412  169.8085 C.3     1  UNL1        0.0005
     17 C         143.4301  137.9407  162.0885 C.3     1  UNL1        0.1166
     18 N         142.7133  137.4799  160.8540 N.am    1  UNL1       -0.2969
     19 C         142.9712  138.1566  159.5405 C.2     1  UNL1        0.2461
     20 O         143.9457  139.2942  159.4614 O.2     1  UNL1       -0.2701
     21 H         142.0737  136.7333  160.9060 H       1  UNL1        0.1501
     22 C         142.2544  137.6959  158.3059 C.ar    1  UNL1        0.0534
     23 C         142.8447  136.6086  157.4578 C.ar    1  UNL1        0.0054
     24 C         142.1280  136.1478  156.2233 C.ar    1  UNL1        0.0115
     25 C         140.8210  136.7743  155.8370 C.ar    1  UNL1        0.0577
     26 CL        140.1042  136.3136  154.6024 Cl      1  UNL1       -0.0822
     27 C         140.2307  137.8616  156.6852 C.ar    1  UNL1        0.0115
     28 C         140.9474  138.3224  157.9197 C.ar    1  UNL1        0.0054
@<TRIPOS>BOND
     1    14    15    1
     2    15    16    1
     3    15    13    1
     4    13     1    1
     5     1     2    2
     6     1     3   am
     7     3     4    1
     8     4     5    1
     9     5     6    1
    10     6     7    1
    11     7     8   ar
    12     8     9   ar
    13     9    17    1
    14    17    18    1
    15    18    19   am
    16    19    20    2
    17    19    22    1
    18    22    23   ar
    19    23    24   ar
    20    24    25   ar
    21    25    26    1
    22    25    27   ar
    23    27    28   ar
    24     9    10   ar
    25    10    11   ar
    26    11    12   ar
    27    12     3    1
    28    12     7   ar
    29    28    22   ar
    30    18    21    1
@<TRIPOS>MOLECULE
*****
 28 30 0 0 0
SMALL
GASTEIGER

@<TRIPOS>ATOM
      1 C         142.3014  141.2669  166.4217 C.2     1  UNL1        0.2293
      2 O         143.4095  142.2417  166.1538 O.2     1  UNL1       -0.2745
      3 N         140.9599  141.4612  165.7792 N.am    1  UNL1       -0.2589
      4 C         139.8518  140.4864  166.0471 C.3     1  UNL1        0.0985
      5 C         138.5103  140.6807  165.4046 C.3     1  UNL1        0.0266
      6 C         138.2770  141.8498  164.4943 C.3     1  UNL1        0.0294
      7 C         139.3851  142.8246  164.2265 C.ar    1  UNL1       -0.0087
      8 C         139.1518  143.9938  163.3161 C.ar    1  UNL1       -0.0057
      9 C         140.2599  144.9686  163.0483 C.ar    1  UNL1       -0.0028
     10 C         141.6014  144.7743  163.6907 C.ar    1  UNL1       -0.0014
     11 C         141.8347  143.6052  164.6010 C.ar    1  UNL1        0.0143
     12 C         140.7266  142.6303  164.8689 C.ar    1  UNL1        0.0498
     13 C         142.5347  140.0978  167.3320 C.3     1  UNL1        0.0856
     14 C         143.1401  141.6389  169.3341 C.3     1  UNL1        0.0005
     15 C         142.6717  140.3137  168.8100 C.3     1  UNL1        0.0091
     16 C         142.3405  139.2046  169.7639 C.3     1  UNL1        0.0005
     17 C         140.0266  146.1378  162.1379 C.3     1  UNL1        0.1166
     18 N         139.6568  145.9086  160.7024 N.am    1  UNL1       -0.2969
     19 C         140.6504  145.2957  159.7606 C.2     1  UNL1        0.2461
     20 O         142.0139  144.9121  160.2543 O.2     1  UNL1       -0.2701
     21 H         138.7618  146.1603  160.3784 H       1  UNL1        0.1501
     22 C         140.2806  145.0664  158.3251 C.ar    1  UNL1        0.0534
     23 C         140.1401  143.6680  157.8010 C.ar    1  UNL1        0.0054
     24 C         139.7702  143.4387  156.3655 C.ar    1  UNL1        0.0115
     25 C         139.5409  144.6078  155.4542 C.ar    1  UNL1        0.0577
     26 CL        139.1711  144.3785  154.0186 Cl      1  UNL1       -0.0822
     27 C         139.6814  146.0062  155.9783 C.ar    1  UNL1        0.0115
     28 C         140.0512  146.2355  157.4138 C.ar    1  UNL1        0.0054
@<TRIPOS>BOND
     1    14    15    1
     2    15    16    1
     3    15    13    1
     4    13     1    1
     5     1     2    2
     6     1     3   am
     7     3     4    1
     8     4     5    1
     9     5     6    1
    10     6     7    1
    11     7     8   ar
    12     8     9   ar
    13     9    17    1
    14    17    18    1
    15    18    19   am
    16    19    20    2
    17    19    22    1
    18    22    23   ar
    19    23    24   ar
    20    24    25   ar
    21    25    26    1
    22    25    27   ar
    23    27    28   ar
    24     9    10   ar
    25    10    11   ar
    26    11    12   ar
    27    12     3    1
    28    12     7   ar
    29    28    22   ar
    30    18    21    1
@<TRIPOS>MOLECULE
*****
 28 30 0 0 0
SMALL
GASTEIGER

@<TRIPOS>ATOM
      1 C         140.5176  140.9282  166.3407 C.2     1  UNL1        0.2293
      2 O         139.0889  141.0637  165.9046 O.2     1  UNL1       -0.2745
      3 N         141.5549  141.8767  165.8166 N.am    1  UNL1       -0.2589
      4 C         142.9836  141.7413  166.2527 C.3     1  UNL1        0.0985
      5 C         144.0209  142.6897  165.7287 C.3     1  UNL1        0.0266
      6 C         143.6293  143.7736  164.7686 C.3     1  UNL1        0.0294
      7 C         142.2005  143.9090  164.3325 C.ar    1  UNL1       -0.0087
      8 C         141.8089  144.9929  163.3723 C.ar    1  UNL1       -0.0057
      9 C         140.3802  145.1283  162.9362 C.ar    1  UNL1       -0.0028
     10 C         139.3429  144.1799  163.4602 C.ar    1  UNL1       -0.0014
     11 C         139.7345  143.0960  164.4204 C.ar    1  UNL1        0.0143
     12 C         141.1633  142.9606  164.8565 C.ar    1  UNL1        0.0498
     13 C         140.9092  139.8444  167.3008 C.3     1  UNL1        0.0856
     14 C         139.5386  140.7337  169.3209 C.3     1  UNL1        0.0005
     15 C         140.7655  140.0629  168.7778 C.3     1  UNL1        0.0091
     16 C         141.8486  139.6107  169.7117 C.3     1  UNL1        0.0005
     17 C         139.9886  146.2122  161.9761 C.3     1  UNL1        0.1166
     18 N         139.5429  145.8595  160.5879 N.am    1  UNL1       -0.2969
     19 C         140.5401  145.3624  159.5838 C.2     1  UNL1        0.2461
     20 O         141.9829  145.2179  159.9677 O.2     1  UNL1       -0.2701
     21 H         138.5960  145.9543  160.3359 H       1  UNL1        0.1501
     22 C         140.0945  145.0096  158.1955 C.ar    1  UNL1        0.0534
     23 C         140.2168  146.0161  157.0901 C.ar    1  UNL1        0.0054
     24 C         139.7713  145.6634  155.7020 C.ar    1  UNL1        0.0115
     25 C         139.2034  144.3042  155.4192 C.ar    1  UNL1        0.0577
     26 CL        138.7578  143.9514  154.0310 Cl      1  UNL1       -0.0822
     27 C         139.0811  143.2977  156.5246 C.ar    1  UNL1        0.0115
     28 C         139.5266  143.6504  157.9128 C.ar    1  UNL1        0.0054
@<TRIPOS>BOND
     1    14    15    1
     2    15    16    1
     3    15    13    1
     4    13     1    1
     5     1     2    2
     6     1     3   am
     7     3     4    1
     8     4     5    1
     9     5     6    1
    10     6     7    1
    11     7     8   ar
    12     8     9   ar
    13     9    17    1
    14    17    18    1
    15    18    19   am
    16    19    20    2
    17    19    22    1
    18    22    23   ar
    19    23    24   ar
    20    24    25   ar
    21    25    26    1
    22    25    27   ar
    23    27    28   ar
    24     9    10   ar
    25    10    11   ar
    26    11    12   ar
    27    12     3    1
    28    12     7   ar
    29    28    22   ar
    30    18    21    1
@<TRIPOS>MOLECULE
*****
 28 30 0 0 0
SMALL
GASTEIGER

@<TRIPOS>ATOM
      1 C         141.0330  141.7512  166.1700 C.2     1  UNL1        0.2293
      2 O         140.1198  140.5985  165.8747 O.2     1  UNL1       -0.2745
      3 N         142.3547  141.8598  165.4690 N.am    1  UNL1       -0.2589
      4 C         143.2679  143.0124  165.7643 C.3     1  UNL1        0.0985
      5 C         144.5895  143.1210  165.0633 C.3     1  UNL1        0.0266
      6 C         144.9979  142.0769  164.0668 C.3     1  UNL1        0.0294
      7 C         144.0847  140.9242  163.7714 C.ar    1  UNL1       -0.0087
      8 C         144.4931  139.8800  162.7749 C.ar    1  UNL1       -0.0057
      9 C         143.5798  138.7273  162.4795 C.ar    1  UNL1       -0.0028
     10 C         142.2582  138.6188  163.1806 C.ar    1  UNL1       -0.0014
     11 C         141.8498  139.6629  164.1771 C.ar    1  UNL1        0.0143
     12 C         142.7631  140.8157  164.4725 C.ar    1  UNL1        0.0498
     13 C         140.6246  142.7953  167.1665 C.3     1  UNL1        0.0856
     14 C         140.4735  143.6183  169.6262 C.3     1  UNL1        0.0005
     15 C         140.9486  142.6126  168.6197 C.3     1  UNL1        0.0091
     16 C         141.7475  141.4243  169.0664 C.3     1  UNL1        0.0005
     17 C         143.9882  137.6831  161.4830 C.3     1  UNL1        0.1166
     18 N         143.0619  137.3123  160.3630 N.am    1  UNL1       -0.2969
     19 C         142.9845  138.1738  159.1375 C.2     1  UNL1        0.2461
     20 O         143.8333  139.4060  159.0320 O.2     1  UNL1       -0.2701
     21 H         142.5049  136.5036  160.4322 H       1  UNL1        0.1501
     22 C         142.0581  137.8030  158.0174 C.ar    1  UNL1        0.0534
     23 C         142.4738  136.7716  157.0107 C.ar    1  UNL1        0.0054
     24 C         141.5476  136.4008  155.8906 C.ar    1  UNL1        0.0115
     25 C         140.2057  137.0614  155.7773 C.ar    1  UNL1        0.0577
     26 CL        139.2794  136.6906  154.6572 Cl      1  UNL1       -0.0822
     27 C         139.7900  138.0928  156.7840 C.ar    1  UNL1        0.0115
     28 C         140.7163  138.4636  157.9041 C.ar    1  UNL1        0.0054
@<TRIPOS>BOND
     1    14    15    1
     2    15    16    1
     3    15    13    1
     4    13     1    1
     5     1     2    2
     6     1     3   am
     7     3     4    1
     8     4     5    1
     9     5     6    1
    10     6     7    1
    11     7     8   ar
    12     8     9   ar
    13     9    17    1
    14    17    18    1
    15    18    19   am
    16    19    20    2
    17    19    22    1
    18    22    23   ar
    19    23    24   ar
    20    24    25   ar
    21    25    26    1
    22    25    27   ar
    23    27    28   ar
    24     9    10   ar
    25    10    11   ar
    26    11    12   ar
    27    12     3    1
    28    12     7   ar
    29    28    22   ar
    30    18    21    1
@<TRIPOS>MOLECULE
*****
 28 30 0 0 0
SMALL
GASTEIGER

@<TRIPOS>ATOM
      1 C         144.7195  141.9226  162.0596 C.2     1  UNL1        0.2293
      2 O         144.9174  142.7071  160.7966 O.2     1  UNL1       -0.2745
      3 N         144.0330  140.5896  162.0148 N.am    1  UNL1       -0.2589
      4 C         143.8351  139.8051  163.2778 C.3     1  UNL1        0.0985
      5 C         143.1486  138.4721  163.2330 C.3     1  UNL1        0.0266
      6 C         142.6601  137.9237  161.9252 C.3     1  UNL1        0.0294
      7 C         142.8580  138.7082  160.6621 C.ar    1  UNL1       -0.0087
      8 C         142.3695  138.1598  159.3542 C.ar    1  UNL1       -0.0057
      9 C         142.5674  138.9443  158.0912 C.ar    1  UNL1       -0.0028
     10 C         143.2539  140.2773  158.1360 C.ar    1  UNL1       -0.0014
     11 C         143.7424  140.8257  159.4438 C.ar    1  UNL1        0.0143
     12 C         143.5445  140.0412  160.7070 C.ar    1  UNL1        0.0498
     13 C         145.2080  142.4710  163.3675 C.3     1  UNL1        0.0856
     14 C         143.7932  144.6329  163.6409 C.3     1  UNL1        0.0005
     15 C         144.3111  143.3401  164.1983 C.3     1  UNL1        0.0091
     16 C         143.9320  142.9164  165.5863 C.3     1  UNL1        0.0005
     17 C         142.0789  138.3959  156.7832 C.3     1  UNL1        0.1166
     18 N         141.8128  136.9268  156.6384 N.am    1  UNL1       -0.2969
     19 C         142.9202  136.0007  156.2310 C.2     1  UNL1        0.2461
     20 O         144.2936  136.5437  155.9685 O.2     1  UNL1       -0.2701
     21 H         140.9114  136.5705  156.8108 H       1  UNL1        0.1501
     22 C         142.6542  134.5316  156.0862 C.ar    1  UNL1        0.0534
     23 C         141.6747  134.0443  155.0600 C.ar    1  UNL1        0.0054
     24 C         141.4086  132.5753  154.9151 C.ar    1  UNL1        0.0115
     25 C         142.1221  131.5934  155.7965 C.ar    1  UNL1        0.0577
     26 CL        141.8561  130.1243  155.6517 Cl      1  UNL1       -0.0822
     27 C         143.1016  132.0807  156.8228 C.ar    1  UNL1        0.0115
     28 C         143.3676  133.5497  156.9676 C.ar    1  UNL1        0.0054
@<TRIPOS>BOND
     1    14    15    1
     2    15    16    1
     3    15    13    1
     4    13     1    1
     5     1     2    2
     6     1     3   am
     7     3     4    1
     8     4     5    1
     9     5     6    1
    10     6     7    1
    11     7     8   ar
    12     8     9   ar
    13     9    17    1
    14    17    18    1
    15    18    19   am
    16    19    20    2
    17    19    22    1
    18    22    23   ar
    19    23    24   ar
    20    24    25   ar
    21    25    26    1
    22    25    27   ar
    23    27    28   ar
    24     9    10   ar
    25    10    11   ar
    26    11    12   ar
    27    12     3    1
    28    12     7   ar
    29    28    22   ar
    30    18    21    1
@<TRIPOS>MOLECULE
*****
 28 30 0 0 0
SMALL
GASTEIGER

@<TRIPOS>ATOM
      1 C         142.1827  138.1255  158.7499 C.2     1  UNL1        0.2293
      2 O         143.0269  137.4005  159.7557 O.2     1  UNL1       -0.2745
      3 N         140.8399  138.6636  159.1464 N.am    1  UNL1       -0.2589
      4 C         139.9957  139.3886  158.1406 C.3     1  UNL1        0.0985
      5 C         138.6528  139.9268  158.5371 C.3     1  UNL1        0.0266
      6 C         138.1542  139.7399  159.9393 C.3     1  UNL1        0.0294
      7 C         138.9984  139.0149  160.9451 C.ar    1  UNL1       -0.0087
      8 C         138.4998  138.8280  162.3475 C.ar    1  UNL1       -0.0057
      9 C         139.3440  138.1030  163.3533 C.ar    1  UNL1       -0.0028
     10 C         140.6868  137.5649  162.9568 C.ar    1  UNL1       -0.0014
     11 C         141.1855  137.7518  161.5545 C.ar    1  UNL1        0.0143
     12 C         140.3413  138.4768  160.5487 C.ar    1  UNL1        0.0498
     13 C         142.6814  138.3124  157.3477 C.3     1  UNL1        0.0856
     14 C         141.4011  136.4491  156.0674 C.3     1  UNL1        0.0005
     15 C         142.6836  137.1562  156.3921 C.3     1  UNL1        0.0091
     16 C         143.9681  136.7070  155.7612 C.3     1  UNL1        0.0005
     17 C         138.8454  137.9161  164.7556 C.3     1  UNL1        0.1166
     18 N         138.8784  139.0625  165.7224 N.am    1  UNL1       -0.2969
     19 C         140.1736  139.4680  166.3609 C.2     1  UNL1        0.2461
     20 O         141.4359  138.7271  166.0327 O.2     1  UNL1       -0.2701
     21 H         138.0499  139.5488  165.9378 H       1  UNL1        0.1501
     22 C         140.2067  140.6145  167.3277 C.ar    1  UNL1        0.0534
     23 C         140.3613  142.0180  166.8217 C.ar    1  UNL1        0.0054
     24 C         140.3943  143.1644  167.7884 C.ar    1  UNL1        0.0115
     25 C         140.2727  142.9073  169.2612 C.ar    1  UNL1        0.0577
     26 CL        140.3058  144.0537  170.2280 Cl      1  UNL1       -0.0822
     27 C         140.1181  141.5037  169.7672 C.ar    1  UNL1        0.0115
     28 C         140.0851  140.3573  168.8005 C.ar    1  UNL1        0.0054
@<TRIPOS>BOND
     1    14    15    1
     2    15    16    1
     3    15    13    1
     4    13     1    1
     5     1     2    2
     6     1     3   am
     7     3     4    1
     8     4     5    1
     9     5     6    1
    10     6     7    1
    11     7     8   ar
    12     8     9   ar
    13     9    17    1
    14    17    18    1
    15    18    19   am
    16    19    20    2
    17    19    22    1
    18    22    23   ar
    19    23    24   ar
    20    24    25   ar
    21    25    26    1
    22    25    27   ar
    23    27    28   ar
    24     9    10   ar
    25    10    11   ar
    26    11    12   ar
    27    12     3    1
    28    12     7   ar
    29    28    22   ar
    30    18    21    1
@<TRIPOS>MOLECULE
*****
 28 30 0 0 0
SMALL
GASTEIGER

@<TRIPOS>ATOM
      1 C         138.0870  142.3606  162.2145 C.2     1  UNL1        0.2293
      2 O         138.0144  143.2157  160.9843 O.2     1  UNL1       -0.2745
      3 N         138.4808  140.9175  162.1027 N.am    1  UNL1       -0.2589
      4 C         138.5534  140.0624  163.3329 C.3     1  UNL1        0.0985
      5 C         138.9471  138.6194  163.2211 C.3     1  UNL1        0.0266
      6 C         139.2682  138.0314  161.8790 C.3     1  UNL1        0.0294
      7 C         139.1956  138.8865  160.6488 C.ar    1  UNL1       -0.0087
      8 C         139.5167  138.2985  159.3067 C.ar    1  UNL1       -0.0057
      9 C         139.4441  139.1536  158.0764 C.ar    1  UNL1       -0.0028
     10 C         139.0503  140.5967  158.1883 C.ar    1  UNL1       -0.0014
     11 C         138.7292  141.1846  159.5303 C.ar    1  UNL1        0.0143
     12 C         138.8019  140.3295  160.7606 C.ar    1  UNL1        0.0498
     13 C         137.7659  142.9486  163.5565 C.3     1  UNL1        0.0856
     14 C         140.2532  143.5511  164.0043 C.3     1  UNL1        0.0005
     15 C         138.7947  143.7618  164.2847 C.3     1  UNL1        0.0091
     16 C         138.3652  144.7857  165.2932 C.3     1  UNL1        0.0005
     17 C         139.7652  138.5656  156.7343 C.3     1  UNL1        0.1166
     18 N         140.2082  137.1365  156.6281 N.am    1  UNL1       -0.2969
     19 C         141.6591  136.8141  156.4258 C.2     1  UNL1        0.2461
     20 O         142.6669  137.9209  156.3296 O.2     1  UNL1       -0.2701
     21 H         139.5467  136.4101  156.6913 H       1  UNL1        0.1501
     22 C         142.1021  135.3849  156.3196 C.ar    1  UNL1        0.0534
     23 C         143.2790  134.9035  157.1153 C.ar    1  UNL1        0.0054
     24 C         143.7221  133.4744  157.0091 C.ar    1  UNL1        0.0115
     25 C         142.9882  132.5267  156.1073 C.ar    1  UNL1        0.0577
     26 CL        143.4313  131.0975  156.0011 Cl      1  UNL1       -0.0822
     27 C         141.8113  133.0082  155.3116 C.ar    1  UNL1        0.0115
     28 C         141.3683  134.4373  155.4178 C.ar    1  UNL1        0.0054
@<TRIPOS>BOND
     1    14    15    1
     2    15    16    1
     3    15    13    1
     4    13     1    1
     5     1     2    2
     6     1     3   am
     7     3     4    1
     8     4     5    1
     9     5     6    1
    10     6     7    1
    11     7     8   ar
    12     8     9   ar
    13     9    17    1
    14    17    18    1
    15    18    19   am
    16    19    20    2
    17    19    22    1
    18    22    23   ar
    19    23    24   ar
    20    24    25   ar
    21    25    26    1
    22    25    27   ar
    23    27    28   ar
    24     9    10   ar
    25    10    11   ar
    26    11    12   ar
    27    12     3    1
    28    12     7   ar
    29    28    22   ar
    30    18    21    1
@<TRIPOS>MOLECULE
*****
 28 30 0 0 0
SMALL
GASTEIGER

@<TRIPOS>ATOM
      1 C         141.3299  129.5301  155.3512 C.2     1  UNL1        0.2293
      2 O         140.3089  130.3240  154.5914 O.2     1  UNL1       -0.2745
      3 N         142.4086  130.2350  156.1188 N.am    1  UNL1       -0.2589
      4 C         143.4296  129.4411  156.8785 C.3     1  UNL1        0.0985
      5 C         144.5084  130.1461  157.6462 C.3     1  UNL1        0.0266
      6 C         144.5662  131.6449  157.6541 C.3     1  UNL1        0.0294
      7 C         143.5452  132.4388  156.8944 C.ar    1  UNL1       -0.0087
      8 C         143.6030  133.9377  156.9022 C.ar    1  UNL1       -0.0057
      9 C         142.5820  134.7316  156.1425 C.ar    1  UNL1       -0.0028
     10 C         141.5032  134.0267  155.3749 C.ar    1  UNL1       -0.0014
     11 C         141.4454  132.5278  155.3670 C.ar    1  UNL1        0.0143
     12 C         142.4664  131.7338  156.1267 C.ar    1  UNL1        0.0498
     13 C         141.2721  128.0312  155.3433 C.3     1  UNL1        0.0856
     14 C         138.8816  127.1974  155.9270 C.3     1  UNL1        0.0005
     15 C         140.3374  127.3118  156.2700 C.3     1  UNL1        0.0091
     16 C         140.8586  126.7068  157.5398 C.3     1  UNL1        0.0005
     17 C         142.6397  136.2305  156.1504 C.3     1  UNL1        0.1166
     18 N         143.2456  136.9516  157.3178 N.am    1  UNL1       -0.2969
     19 C         142.3811  137.7896  158.2124 C.2     1  UNL1        0.2461
     20 O         140.9107  137.9066  157.9395 O.2     1  UNL1       -0.2701
     21 H         144.2106  136.8748  157.4969 H       1  UNL1        0.1501
     22 C         142.9869  138.5108  159.3799 C.ar    1  UNL1        0.0534
     23 C         143.2930  137.7653  160.6451 C.ar    1  UNL1        0.0054
     24 C         143.8988  138.4864  161.8126 C.ar    1  UNL1        0.0115
     25 C         144.1985  139.9529  161.7149 C.ar    1  UNL1        0.0577
     26 CL        144.8043  140.6740  162.8824 Cl      1  UNL1       -0.0822
     27 C         143.8924  140.6983  160.4497 C.ar    1  UNL1        0.0115
     28 C         143.2866  139.9772  159.2822 C.ar    1  UNL1        0.0054
@<TRIPOS>BOND
     1    14    15    1
     2    15    16    1
     3    15    13    1
     4    13     1    1
     5     1     2    2
     6     1     3   am
     7     3     4    1
     8     4     5    1
     9     5     6    1
    10     6     7    1
    11     7     8   ar
    12     8     9   ar
    13     9    17    1
    14    17    18    1
    15    18    19   am
    16    19    20    2
    17    19    22    1
    18    22    23   ar
    19    23    24   ar
    20    24    25   ar
    21    25    26    1
    22    25    27   ar
    23    27    28   ar
    24     9    10   ar
    25    10    11   ar
    26    11    12   ar
    27    12     3    1
    28    12     7   ar
    29    28    22   ar
    30    18    21    1
