@<TRIPOS>MOLECULE
*****
 33 36 0 0 0
SMALL
GASTEIGER

@<TRIPOS>ATOM
      1 C         139.7288  144.8592  161.6574 C.2     1  UNL1        0.1521
      2 N         139.9367  145.4581  160.2979 N.am    1  UNL1       -0.1543
      3 C         141.2822  145.0207  159.7995 C.2     1  UNL1        0.2766
      4 O         141.8963  145.3880  158.4813 O.2     1  UNL1       -0.2674
      5 C         141.9059  144.1515  160.8510 C.2     1  UNL1        0.0887
      6 C         143.2530  143.4970  160.7687 C.2     1  UNL1        0.0308
      7 S         140.9458  144.0516  161.9992 S.3     1  UNL1       -0.0511
      8 C         143.7466  142.6511  161.9049 C.ar    1  UNL1        0.0890
      9 C         145.1134  142.0449  162.0238 C.ar    1  UNL1        0.0560
     10 S         145.1715  141.2820  163.3140 S.2     1  UNL1       -0.0659
     11 C         143.8405  141.4167  163.9925 C.ar    1  UNL1        0.1107
     12 N         142.9599  142.2629  163.1216 N.ar    1  UNL1       -0.2383
     13 C         143.4575  140.8116  165.3104 C.ar    1  UNL1        0.0240
     14 C         142.9996  141.6919  166.4352 C.ar    1  UNL1        0.0051
     15 C         142.6165  141.0868  167.7532 C.ar    1  UNL1        0.0372
     16 C         142.6914  139.6011  167.9464 C.ar    1  UNL1        0.1468
     17 C         143.1493  138.7207  166.8215 C.ar    1  UNL1        0.0372
     18 C         143.5323  139.3259  165.5035 C.ar    1  UNL1        0.0051
     19 O         142.3083  138.9960  169.2643 O.3     1  UNL1       -0.4045
     20 C         141.8626  139.8775  170.3931 C.3     1  UNL1        0.5753
     21 F         141.4167  140.7590  171.5219 F       1  UNL1       -0.1328
     22 F         140.4307  139.6297  170.0212 F       1  UNL1       -0.1328
     23 F         143.2944  140.1253  170.7650 F       1  UNL1       -0.1328
     24 N         138.5167  145.0366  162.5230 N.pl3   1  UNL1       -0.3149
     25 H         137.7035  145.4498  162.1526 H       1  UNL1        0.1485
     26 C         138.5436  144.5845  163.9530 C.3     1  UNL1        0.0885
     27 C         138.5985  138.7259  165.2466 C.3     1  UNL1        0.0896
     28 N         138.5848  140.1905  164.9232 N.3     1  UNL1       -0.2715
     29 C         137.7044  140.7078  163.8244 C.3     1  UNL1        0.0722
     30 C         137.6907  142.1724  163.5010 C.3     1  UNL1        0.0191
     31 C         138.5573  143.1198  164.2764 C.3     1  UNL1        0.0223
     32 C         139.4377  142.6026  165.3752 C.3     1  UNL1        0.0191
     33 C         139.4514  141.1380  165.6986 C.3     1  UNL1        0.0722
@<TRIPOS>BOND
     1    27    28    1
     2    28    29    1
     3    29    30    1
     4    30    31    1
     5    31    26    1
     6    26    24    1
     7    24     1    1
     8     1     2    2
     9     2     3    1
    10     3     4    2
    11     3     5    1
    12     5     6    2
    13     6     8    1
    14     8     9   ar
    15     9    10   ar
    16    10    11   ar
    17    11    13    1
    18    13    14   ar
    19    14    15   ar
    20    15    16   ar
    21    16    19    1
    22    19    20    1
    23    20    21    1
    24    20    22    1
    25    20    23    1
    26    16    17   ar
    27    17    18   ar
    28    11    12   ar
    29     5     7    1
    30    31    32    1
    31    32    33    1
    32    33    28    1
    33     7     1    1
    34    12     8   ar
    35    18    13   ar
    36    24    25    1
@<TRIPOS>MOLECULE
*****
 33 36 0 0 0
SMALL
GASTEIGER

@<TRIPOS>ATOM
      1 C         143.2965  141.9638  160.1073 C.2     1  UNL1        0.1521
      2 N         143.9518  141.2847  158.9414 N.am    1  UNL1       -0.1543
      3 C         143.3777  139.9036  158.8268 C.2     1  UNL1        0.2766
      4 O         143.7486  138.8772  157.7979 O.2     1  UNL1       -0.2674
      5 C         142.3676  139.7292  159.9219 C.2     1  UNL1        0.0887
      6 C         141.5511  138.4977  160.1803 C.2     1  UNL1        0.0308
      7 S         142.3174  141.0025  160.7134 S.3     1  UNL1       -0.0511
      8 C         140.5753  138.4701  161.3192 C.ar    1  UNL1        0.0890
      9 C         139.1587  137.9813  161.2548 C.ar    1  UNL1        0.0560
     10 S         138.5527  138.1356  162.6183 S.2     1  UNL1       -0.0659
     11 C         139.5948  138.7198  163.5253 C.ar    1  UNL1        0.1107
     12 N         140.8448  138.9265  162.7224 N.ar    1  UNL1       -0.2383
     13 C         139.4179  139.0408  164.9798 C.ar    1  UNL1        0.0240
     14 C         140.4109  139.9204  165.6799 C.ar    1  UNL1        0.0051
     15 C         140.2340  140.2415  167.1344 C.ar    1  UNL1        0.0372
     16 C         139.0641  139.6829  167.8889 C.ar    1  UNL1        0.1468
     17 C         138.0710  138.8033  167.1887 C.ar    1  UNL1        0.0372
     18 C         138.2479  138.4822  165.7342 C.ar    1  UNL1        0.0051
     19 O         138.8872  140.0040  169.3434 O.3     1  UNL1       -0.4045
     20 C         140.0136  140.6222  170.1174 C.3     1  UNL1        0.5753
     21 F         141.1400  141.2405  170.8913 F       1  UNL1       -0.1328
     22 F         139.2594  141.9172  170.1805 F       1  UNL1       -0.1328
     23 F         140.7678  139.3271  170.0542 F       1  UNL1       -0.1328
     24 N         143.5719  143.3593  160.5836 N.pl3   1  UNL1       -0.3149
     25 H         143.6819  144.0891  159.9320 H       1  UNL1        0.1485
     26 C         143.6796  143.6428  162.0526 C.3     1  UNL1        0.0885
     27 C         138.7425  144.8297  165.2488 C.3     1  UNL1        0.0896
     28 N         139.9767  144.5330  164.4498 N.3     1  UNL1       -0.2715
     29 C         140.9903  143.5571  164.9698 C.3     1  UNL1        0.0722
     30 C         142.2245  143.2604  164.1707 C.3     1  UNL1        0.0191
     31 C         142.4453  143.9396  162.8516 C.3     1  UNL1        0.0223
     32 C         141.4318  144.9154  162.3316 C.3     1  UNL1        0.0191
     33 C         140.1975  145.2121  163.1307 C.3     1  UNL1        0.0722
@<TRIPOS>BOND
     1    27    28    1
     2    28    29    1
     3    29    30    1
     4    30    31    1
     5    31    26    1
     6    26    24    1
     7    24     1    1
     8     1     2    2
     9     2     3    1
    10     3     4    2
    11     3     5    1
    12     5     6    2
    13     6     8    1
    14     8     9   ar
    15     9    10   ar
    16    10    11   ar
    17    11    13    1
    18    13    14   ar
    19    14    15   ar
    20    15    16   ar
    21    16    19    1
    22    19    20    1
    23    20    21    1
    24    20    22    1
    25    20    23    1
    26    16    17   ar
    27    17    18   ar
    28    11    12   ar
    29     5     7    1
    30    31    32    1
    31    32    33    1
    32    33    28    1
    33     7     1    1
    34    12     8   ar
    35    18    13   ar
    36    24    25    1
@<TRIPOS>MOLECULE
*****
 33 36 0 0 0
SMALL
GASTEIGER

@<TRIPOS>ATOM
      1 C         142.4086  138.8752  159.6107 C.2     1  UNL1        0.1521
      2 N         141.8450  138.3066  158.3423 N.am    1  UNL1       -0.1543
      3 C         140.3499  138.4046  158.4145 C.2     1  UNL1        0.2766
      4 O         139.3847  137.9527  157.3590 O.2     1  UNL1       -0.2674
      5 C         139.9895  139.0337  159.7276 C.2     1  UNL1        0.0887
      6 C         138.6006  139.3214  160.2157 C.2     1  UNL1        0.0308
      7 S         141.2618  139.3246  160.4670 S.3     1  UNL1       -0.0511
      8 C         138.3943  139.9577  161.5583 C.ar    1  UNL1        0.0890
      9 C         137.6766  141.2483  161.8214 C.ar    1  UNL1        0.0560
     10 S         137.7081  141.5034  163.2992 S.2     1  UNL1       -0.0659
     11 C         138.4453  140.3704  163.9495 C.ar    1  UNL1        0.1107
     12 N         138.8693  139.4151  162.8735 N.ar    1  UNL1       -0.2383
     13 C         138.7117  140.2192  165.4179 C.ar    1  UNL1        0.0240
     14 C         139.7390  141.0835  166.0867 C.ar    1  UNL1        0.0051
     15 C         140.0054  140.9323  167.5551 C.ar    1  UNL1        0.0372
     16 C         139.2444  139.9167  168.3547 C.ar    1  UNL1        0.1468
     17 C         138.2170  139.0522  167.6858 C.ar    1  UNL1        0.0372
     18 C         137.9506  139.2035  166.2174 C.ar    1  UNL1        0.0051
     19 O         139.5107  139.7655  169.8231 O.3     1  UNL1       -0.4045
     20 C         140.7872  140.2892  170.4116 C.3     1  UNL1        0.5753
     21 F         142.0637  140.8128  171.0000 F       1  UNL1       -0.1328
     22 F         141.4928  139.0309  170.0006 F       1  UNL1       -0.1328
     23 F         140.0815  141.5474  170.8225 F       1  UNL1       -0.1328
     24 N         143.8635  138.9767  159.9615 N.pl3   1  UNL1       -0.3149
     25 H         144.5258  139.1773  159.2613 H       1  UNL1        0.1485
     26 C         144.3092  138.7724  161.3790 C.3     1  UNL1        0.0885
     27 C         144.4827  143.4208  165.1688 C.3     1  UNL1        0.0896
     28 N         144.4393  142.2587  164.2214 N.3     1  UNL1       -0.2715
     29 C         144.1630  140.8785  164.7395 C.3     1  UNL1        0.0722
     30 C         144.1196  139.7164  163.7921 C.3     1  UNL1        0.0191
     31 C         144.3526  139.9345  162.3265 C.3     1  UNL1        0.0223
     32 C         144.6290  141.3147  161.8083 C.3     1  UNL1        0.0191
     33 C         144.6724  142.4768  162.7557 C.3     1  UNL1        0.0722
@<TRIPOS>BOND
     1    27    28    1
     2    28    29    1
     3    29    30    1
     4    30    31    1
     5    31    26    1
     6    26    24    1
     7    24     1    1
     8     1     2    2
     9     2     3    1
    10     3     4    2
    11     3     5    1
    12     5     6    2
    13     6     8    1
    14     8     9   ar
    15     9    10   ar
    16    10    11   ar
    17    11    13    1
    18    13    14   ar
    19    14    15   ar
    20    15    16   ar
    21    16    19    1
    22    19    20    1
    23    20    21    1
    24    20    22    1
    25    20    23    1
    26    16    17   ar
    27    17    18   ar
    28    11    12   ar
    29     5     7    1
    30    31    32    1
    31    32    33    1
    32    33    28    1
    33     7     1    1
    34    12     8   ar
    35    18    13   ar
    36    24    25    1
@<TRIPOS>MOLECULE
*****
 33 36 0 0 0
SMALL
GASTEIGER

@<TRIPOS>ATOM
      1 C         141.2444  139.0843  159.9574 C.2     1  UNL1        0.1521
      2 N         142.1272  138.9057  158.7579 N.am    1  UNL1       -0.1543
      3 C         143.2928  139.8396  158.8970 C.2     1  UNL1        0.2766
      4 O         144.4224  139.9911  157.9219 O.2     1  UNL1       -0.2674
      5 C         143.1304  140.5953  160.1825 C.2     1  UNL1        0.0887
      6 C         144.0691  141.6352  160.7185 C.2     1  UNL1        0.0308
      7 S         141.8644  140.1285  160.8379 S.3     1  UNL1       -0.0511
      8 C         143.7739  142.3099  162.0254 C.ar    1  UNL1        0.0890
      9 C         144.0248  143.7529  162.3491 C.ar    1  UNL1        0.0560
     10 S         143.5820  143.9947  163.7617 S.2     1  UNL1       -0.0659
     11 C         143.0575  142.7012  164.3110 C.ar    1  UNL1        0.1107
     12 N         143.1761  141.6599  163.2379 N.ar    1  UNL1       -0.2383
     13 C         142.5104  142.4867  165.6911 C.ar    1  UNL1        0.0240
     14 C         143.4420  142.4162  166.8646 C.ar    1  UNL1        0.0051
     15 C         142.8949  142.2017  168.2447 C.ar    1  UNL1        0.0372
     16 C         141.4162  142.0576  168.4513 C.ar    1  UNL1        0.1468
     17 C         140.4846  142.1280  167.2777 C.ar    1  UNL1        0.0372
     18 C         141.0317  142.3426  165.8976 C.ar    1  UNL1        0.0051
     19 O         140.8692  141.8430  169.8314 O.3     1  UNL1       -0.4045
     20 C         139.5610  141.1331  170.0176 C.3     1  UNL1        0.5753
     21 F         138.2529  140.4231  170.2038 F       1  UNL1       -0.1328
     22 F         140.1790  139.8625  169.5141 F       1  UNL1       -0.1328
     23 F         138.9431  142.4038  170.5211 F       1  UNL1       -0.1328
     24 N         139.9661  138.3479  160.2288 N.pl3   1  UNL1       -0.3149
     25 H         139.8805  137.4004  159.9755 H       1  UNL1        0.1485
     26 C         138.8182  139.0551  160.8862 C.3     1  UNL1        0.0885
     27 C         138.2797  138.9897  166.8616 C.3     1  UNL1        0.0896
     28 N         138.4143  139.0060  165.3677 N.3     1  UNL1       -0.2715
     29 C         138.8628  137.7726  164.6416 C.3     1  UNL1        0.0722
     30 C         138.9974  137.7889  163.1477 C.3     1  UNL1        0.0191
     31 C         138.6836  139.0387  162.3800 C.3     1  UNL1        0.0223
     32 C         138.2351  140.2722  163.1062 C.3     1  UNL1        0.0191
     33 C         138.1004  140.2559  164.6000 C.3     1  UNL1        0.0722
@<TRIPOS>BOND
     1    27    28    1
     2    28    29    1
     3    29    30    1
     4    30    31    1
     5    31    26    1
     6    26    24    1
     7    24     1    1
     8     1     2    2
     9     2     3    1
    10     3     4    2
    11     3     5    1
    12     5     6    2
    13     6     8    1
    14     8     9   ar
    15     9    10   ar
    16    10    11   ar
    17    11    13    1
    18    13    14   ar
    19    14    15   ar
    20    15    16   ar
    21    16    19    1
    22    19    20    1
    23    20    21    1
    24    20    22    1
    25    20    23    1
    26    16    17   ar
    27    17    18   ar
    28    11    12   ar
    29     5     7    1
    30    31    32    1
    31    32    33    1
    32    33    28    1
    33     7     1    1
    34    12     8   ar
    35    18    13   ar
    36    24    25    1
@<TRIPOS>MOLECULE
*****
 33 36 0 0 0
SMALL
GASTEIGER

@<TRIPOS>ATOM
      1 C         140.1334  142.1029  159.3656 C.2     1  UNL1        0.1521
      2 N         139.1166  141.8395  158.2948 N.am    1  UNL1       -0.1543
      3 C         138.1378  140.8327  158.8226 C.2     1  UNL1        0.2766
      4 O         136.9549  140.2814  158.0832 O.2     1  UNL1       -0.2674
      5 C         138.5498  140.4739  160.2196 C.2     1  UNL1        0.0887
      6 C         137.8512  139.5009  161.1224 C.2     1  UNL1        0.0308
      7 S         139.7832  141.2589  160.5553 S.3     1  UNL1       -0.0511
      8 C         138.3825  139.2425  162.5012 C.ar    1  UNL1        0.0890
      9 C         138.8442  137.9188  163.0344 C.ar    1  UNL1        0.0560
     10 S         139.2924  138.1207  164.4516 S.2     1  UNL1       -0.0659
     11 C         139.1076  139.5693  164.7942 C.ar    1  UNL1        0.1107
     12 N         138.5453  140.2626  163.5888 N.ar    1  UNL1       -0.2383
     13 C         139.4289  140.2118  166.1110 C.ar    1  UNL1        0.0240
     14 C         139.0190  139.5451  167.3907 C.ar    1  UNL1        0.0051
     15 C         139.3402  140.1876  168.7075 C.ar    1  UNL1        0.0372
     16 C         140.0713  141.4968  168.7447 C.ar    1  UNL1        0.1468
     17 C         140.4812  142.1635  167.4650 C.ar    1  UNL1        0.0372
     18 C         140.1600  141.5210  166.1482 C.ar    1  UNL1        0.0051
     19 O         140.3926  142.1393  170.0615 O.3     1  UNL1       -0.4045
     20 C         141.7058  142.8379  170.2546 C.3     1  UNL1        0.5753
     21 F         143.0191  143.5364  170.4477 F       1  UNL1       -0.1328
     22 F         142.3753  141.5155  170.4848 F       1  UNL1       -0.1328
     23 F         141.0362  144.1603  170.0245 F       1  UNL1       -0.1328
     24 N         141.2963  143.0450  159.2646 N.pl3   1  UNL1       -0.3149
     25 H         141.9964  142.8921  158.5895 H       1  UNL1        0.1485
     26 C         141.3926  144.2198  160.1922 C.3     1  UNL1        0.0885
     27 C         144.5736  143.7875  165.2611 C.3     1  UNL1        0.0896
     28 N         143.7784  143.8956  163.9939 N.3     1  UNL1       -0.2715
     29 C         144.2697  143.2327  162.7412 C.3     1  UNL1        0.0722
     30 C         143.4744  143.3408  161.4740 C.3     1  UNL1        0.0191
     31 C         142.1878  144.1117  161.4594 C.3     1  UNL1        0.0223
     32 C         141.6965  144.7746  162.7120 C.3     1  UNL1        0.0191
     33 C         142.4918  144.6666  163.9793 C.3     1  UNL1        0.0722
@<TRIPOS>BOND
     1    27    28    1
     2    28    29    1
     3    29    30    1
     4    30    31    1
     5    31    26    1
     6    26    24    1
     7    24     1    1
     8     1     2    2
     9     2     3    1
    10     3     4    2
    11     3     5    1
    12     5     6    2
    13     6     8    1
    14     8     9   ar
    15     9    10   ar
    16    10    11   ar
    17    11    13    1
    18    13    14   ar
    19    14    15   ar
    20    15    16   ar
    21    16    19    1
    22    19    20    1
    23    20    21    1
    24    20    22    1
    25    20    23    1
    26    16    17   ar
    27    17    18   ar
    28    11    12   ar
    29     5     7    1
    30    31    32    1
    31    32    33    1
    32    33    28    1
    33     7     1    1
    34    12     8   ar
    35    18    13   ar
    36    24    25    1
@<TRIPOS>MOLECULE
*****
 33 36 0 0 0
SMALL
GASTEIGER

@<TRIPOS>ATOM
      1 C         143.2032  142.9696  160.0727 C.2     1  UNL1        0.1521
      2 N         142.8564  144.0205  159.0602 N.am    1  UNL1       -0.1543
      3 C         141.3699  144.2196  159.0892 C.2     1  UNL1        0.2766
      4 O         140.5919  145.1782  158.2374 O.2     1  UNL1       -0.2674
      5 C         140.7980  143.2917  160.1197 C.2     1  UNL1        0.0887
      6 C         139.3478  143.1595  160.4793 C.2     1  UNL1        0.0308
      7 S         141.9310  142.5191  160.7276 S.3     1  UNL1       -0.0511
      8 C         138.9230  142.1833  161.5360 C.ar    1  UNL1        0.0890
      9 C         137.9624  141.0462  161.3509 C.ar    1  UNL1        0.0560
     10 S         137.8299  140.3329  162.6637 S.2     1  UNL1       -0.0659
     11 C         138.7088  141.0291  163.6602 C.ar    1  UNL1        0.1107
     12 N         139.3843  142.1727  162.9632 N.ar    1  UNL1       -0.2383
     13 C         138.8816  140.6486  165.1008 C.ar    1  UNL1        0.0240
     14 C         138.1003  139.5031  165.6730 C.ar    1  UNL1        0.0051
     15 C         138.2732  139.1225  167.1135 C.ar    1  UNL1        0.0372
     16 C         139.2275  139.8875  167.9820 C.ar    1  UNL1        0.1468
     17 C         140.0088  141.0330  167.4098 C.ar    1  UNL1        0.0372
     18 C         139.8359  141.4136  165.9693 C.ar    1  UNL1        0.0051
     19 O         139.4004  139.5069  169.4226 O.3     1  UNL1       -0.4045
     20 C         140.2388  140.3596  170.3282 C.3     1  UNL1        0.5753
     21 F         141.0771  141.2123  171.2337 F       1  UNL1       -0.1328
     22 F         139.1542  141.3954  170.3568 F       1  UNL1       -0.1328
     23 F         141.3233  139.3237  170.2994 F       1  UNL1       -0.1328
     24 N         144.5803  142.4588  160.3770 N.pl3   1  UNL1       -0.3149
     25 H         145.1385  142.0882  159.6556 H       1  UNL1        0.1485
     26 C         145.1071  142.5126  161.7804 C.3     1  UNL1        0.0885
     27 C         143.0381  138.6833  165.9103 C.3     1  UNL1        0.0896
     28 N         143.5554  139.6406  164.8778 N.3     1  UNL1       -0.2715
     29 C         143.6735  141.1006  165.2011 C.3     1  UNL1        0.0722
     30 C         144.1908  142.0579  164.1686 C.3     1  UNL1        0.0191
     31 C         144.5899  141.5553  162.8129 C.3     1  UNL1        0.0223
     32 C         144.4717  140.0953  162.4896 C.3     1  UNL1        0.0191
     33 C         143.9545  139.1380  163.5221 C.3     1  UNL1        0.0722
@<TRIPOS>BOND
     1    27    28    1
     2    28    29    1
     3    29    30    1
     4    30    31    1
     5    31    26    1
     6    26    24    1
     7    24     1    1
     8     1     2    2
     9     2     3    1
    10     3     4    2
    11     3     5    1
    12     5     6    2
    13     6     8    1
    14     8     9   ar
    15     9    10   ar
    16    10    11   ar
    17    11    13    1
    18    13    14   ar
    19    14    15   ar
    20    15    16   ar
    21    16    19    1
    22    19    20    1
    23    20    21    1
    24    20    22    1
    25    20    23    1
    26    16    17   ar
    27    17    18   ar
    28    11    12   ar
    29     5     7    1
    30    31    32    1
    31    32    33    1
    32    33    28    1
    33     7     1    1
    34    12     8   ar
    35    18    13   ar
    36    24    25    1
@<TRIPOS>MOLECULE
*****
 33 36 0 0 0
SMALL
GASTEIGER

@<TRIPOS>ATOM
      1 C         140.7738  140.1353  158.4563 C.2     1  UNL1        0.1521
      2 N         139.6335  140.4000  157.5184 N.am    1  UNL1       -0.1543
      3 C         138.3553  140.2517  158.2892 C.2     1  UNL1        0.2766
      4 O         136.9700  140.4286  157.7419 O.2     1  UNL1       -0.2674
      5 C         138.7056  139.8953  159.7035 C.2     1  UNL1        0.0887
      6 C         137.7322  139.6534  160.8188 C.2     1  UNL1        0.0308
      7 S         140.2004  139.8234  159.8068 S.3     1  UNL1       -0.0511
      8 C         138.2330  139.3032  162.1887 C.ar    1  UNL1        0.0890
      9 C         138.5107  137.9203  162.6991 C.ar    1  UNL1        0.0560
     10 S         138.9933  138.0369  164.1145 S.2     1  UNL1       -0.0659
     11 C         139.0140  139.4918  164.4789 C.ar    1  UNL1        0.1107
     12 N         138.5441  140.2744  163.2887 N.ar    1  UNL1       -0.2383
     13 C         139.4312  140.0637  165.8013 C.ar    1  UNL1        0.0240
     14 C         138.9846  139.4104  167.0755 C.ar    1  UNL1        0.0051
     15 C         139.4019  139.9823  168.3980 C.ar    1  UNL1        0.0372
     16 C         140.2658  141.2076  168.4462 C.ar    1  UNL1        0.1468
     17 C         140.7125  141.8609  167.1719 C.ar    1  UNL1        0.0372
     18 C         140.2952  141.2890  165.8495 C.ar    1  UNL1        0.0051
     19 O         140.6831  141.7794  169.7686 O.3     1  UNL1       -0.4045
     20 C         140.3732  143.2095  170.0987 C.3     1  UNL1        0.5753
     21 F         140.0634  144.6395  170.4287 F       1  UNL1       -0.1328
     22 F         141.7440  143.6119  169.6415 F       1  UNL1       -0.1328
     23 F         139.0025  142.8069  170.5558 F       1  UNL1       -0.1328
     24 N         142.2317  140.1755  158.1053 N.pl3   1  UNL1       -0.3149
     25 H         142.5356  140.6903  157.3231 H       1  UNL1        0.1485
     26 C         143.2263  139.4314  158.9460 C.3     1  UNL1        0.0885
     27 C         145.4554  141.9675  163.9058 C.3     1  UNL1        0.0896
     28 N         144.8981  141.3335  162.6658 N.3     1  UNL1       -0.2715
     29 C         144.6973  142.1565  161.4280 C.3     1  UNL1        0.0722
     30 C         144.1401  141.5224  160.1880 C.3     1  UNL1        0.0191
     31 C         143.7836  140.0654  160.1860 C.3     1  UNL1        0.0223
     32 C         143.9844  139.2425  161.4238 C.3     1  UNL1        0.0191
     33 C         144.5417  139.8765  162.6638 C.3     1  UNL1        0.0722
@<TRIPOS>BOND
     1    27    28    1
     2    28    29    1
     3    29    30    1
     4    30    31    1
     5    31    26    1
     6    26    24    1
     7    24     1    1
     8     1     2    2
     9     2     3    1
    10     3     4    2
    11     3     5    1
    12     5     6    2
    13     6     8    1
    14     8     9   ar
    15     9    10   ar
    16    10    11   ar
    17    11    13    1
    18    13    14   ar
    19    14    15   ar
    20    15    16   ar
    21    16    19    1
    22    19    20    1
    23    20    21    1
    24    20    22    1
    25    20    23    1
    26    16    17   ar
    27    17    18   ar
    28    11    12   ar
    29     5     7    1
    30    31    32    1
    31    32    33    1
    32    33    28    1
    33     7     1    1
    34    12     8   ar
    35    18    13   ar
    36    24    25    1
@<TRIPOS>MOLECULE
*****
 33 36 0 0 0
SMALL
GASTEIGER

@<TRIPOS>ATOM
      1 C         140.1382  139.2691  159.8447 C.2     1  UNL1        0.1521
      2 N         140.7639  138.5855  158.6653 N.am    1  UNL1       -0.1543
      3 C         142.2515  138.5974  158.8579 C.2     1  UNL1        0.2766
      4 O         143.2670  138.0197  157.9173 O.2     1  UNL1       -0.2674
      5 C         142.5451  139.2884  160.1565 C.2     1  UNL1        0.0887
      6 C         143.9059  139.5231  160.7424 C.2     1  UNL1        0.0308
      7 S         141.2391  139.7036  160.7664 S.3     1  UNL1       -0.0511
      8 C         144.0444  140.2326  162.0567 C.ar    1  UNL1        0.0890
      9 C         144.8560  141.4683  162.3104 C.ar    1  UNL1        0.0560
     10 S         144.7088  141.8302  163.7586 S.2     1  UNL1       -0.0659
     11 C         143.8063  140.8183  164.4000 C.ar    1  UNL1        0.1107
     12 N         143.3957  139.8309  163.3481 N.ar    1  UNL1       -0.2383
     13 C         143.3878  140.7974  165.8403 C.ar    1  UNL1        0.0240
     14 C         143.0535  139.4952  166.5054 C.ar    1  UNL1        0.0051
     15 C         142.6351  139.4743  167.9457 C.ar    1  UNL1        0.0372
     16 C         142.5509  140.7557  168.7209 C.ar    1  UNL1        0.1468
     17 C         142.8853  142.0579  168.0557 C.ar    1  UNL1        0.0372
     18 C         143.3037  142.0788  166.6154 C.ar    1  UNL1        0.0051
     19 O         142.1325  140.7348  170.1612 O.3     1  UNL1       -0.4045
     20 C         141.0948  141.6988  170.6548 C.3     1  UNL1        0.5753
     21 F         140.0571  142.6630  171.1484 F       1  UNL1       -0.1328
     22 F         142.1110  142.3288  171.5605 F       1  UNL1       -0.1328
     23 F         140.0786  141.0688  169.7490 F       1  UNL1       -0.1328
     24 N         138.6696  139.4812  160.0640 N.pl3   1  UNL1       -0.3149
     25 H         138.1841  140.1518  159.5313 H       1  UNL1        0.1485
     26 C         137.9406  138.6713  161.0948 C.3     1  UNL1        0.0885
     27 C         139.0365  139.5530  166.9277 C.3     1  UNL1        0.0896
     28 N         138.7625  139.3326  165.4695 N.3     1  UNL1       -0.2715
     29 C         138.2068  140.4474  164.6338 C.3     1  UNL1        0.0722
     30 C         137.9329  140.2270  163.1756 C.3     1  UNL1        0.0191
     31 C         138.2146  138.8918  162.5530 C.3     1  UNL1        0.0223
     32 C         138.7702  137.7769  163.3887 C.3     1  UNL1        0.0191
     33 C         139.0442  137.9973  164.8469 C.3     1  UNL1        0.0722
@<TRIPOS>BOND
     1    27    28    1
     2    28    29    1
     3    29    30    1
     4    30    31    1
     5    31    26    1
     6    26    24    1
     7    24     1    1
     8     1     2    2
     9     2     3    1
    10     3     4    2
    11     3     5    1
    12     5     6    2
    13     6     8    1
    14     8     9   ar
    15     9    10   ar
    16    10    11   ar
    17    11    13    1
    18    13    14   ar
    19    14    15   ar
    20    15    16   ar
    21    16    19    1
    22    19    20    1
    23    20    21    1
    24    20    22    1
    25    20    23    1
    26    16    17   ar
    27    17    18   ar
    28    11    12   ar
    29     5     7    1
    30    31    32    1
    31    32    33    1
    32    33    28    1
    33     7     1    1
    34    12     8   ar
    35    18    13   ar
    36    24    25    1
@<TRIPOS>MOLECULE
*****
 33 36 0 0 0
SMALL
GASTEIGER

@<TRIPOS>ATOM
      1 C         138.9705  141.3642  158.7599 C.2     1  UNL1        0.1521
      2 N         139.3030  142.2384  157.5873 N.am    1  UNL1       -0.1543
      3 C         139.7485  143.5705  158.1137 C.2     1  UNL1        0.2766
      4 O         140.1761  144.7469  157.2873 O.2     1  UNL1       -0.2674
      5 C         139.6913  143.5195  159.6118 C.2     1  UNL1        0.0887
      6 C         140.0516  144.6361  160.5464 C.2     1  UNL1        0.0308
      7 S         139.2104  142.1560  160.0112 S.3     1  UNL1       -0.0511
      8 C         139.9438  144.4372  162.0292 C.ar    1  UNL1        0.0890
      9 C         138.8401  144.9450  162.9089 C.ar    1  UNL1        0.0560
     10 S         139.1349  144.5173  164.3161 S.2     1  UNL1       -0.0659
     11 C         140.4210  143.7453  164.3061 C.ar    1  UNL1        0.1107
     12 N         140.9208  143.6958  162.8927 N.ar    1  UNL1       -0.2383
     13 C         141.0897  143.1306  165.4998 C.ar    1  UNL1        0.0240
     14 C         142.5466  142.7783  165.4448 C.ar    1  UNL1        0.0051
     15 C         143.2153  142.1637  166.6385 C.ar    1  UNL1        0.0372
     16 C         142.4270  141.9013  167.8874 C.ar    1  UNL1        0.1468
     17 C         140.9699  142.2536  167.9425 C.ar    1  UNL1        0.0372
     18 C         140.3013  142.8683  166.7487 C.ar    1  UNL1        0.0051
     19 O         143.0957  141.2866  169.0812 O.3     1  UNL1       -0.4045
     20 C         142.6246  139.9627  169.6057 C.3     1  UNL1        0.5753
     21 F         142.1536  138.6386  170.1301 F       1  UNL1       -0.1328
     22 F         142.9062  139.3346  168.2730 F       1  UNL1       -0.1328
     23 F         142.3431  140.5908  170.9384 F       1  UNL1       -0.1328
     24 N         138.4835  139.9470  158.6931 N.pl3   1  UNL1       -0.3149
     25 H         137.5338  139.7609  158.5121 H       1  UNL1        0.1485
     26 C         139.4433  138.8135  158.9021 C.3     1  UNL1        0.0885
     27 C         141.0205  137.2045  164.4631 C.3     1  UNL1        0.0896
     28 N         140.6262  137.6068  163.0728 N.3     1  UNL1       -0.2715
     29 C         141.6815  137.8549  162.0361 C.3     1  UNL1        0.0722
     30 C         141.2872  138.2572  160.6459 C.3     1  UNL1        0.0191
     31 C         139.8376  138.4112  160.2924 C.3     1  UNL1        0.0223
     32 C         138.7824  138.1631  161.3291 C.3     1  UNL1        0.0191
     33 C         139.1767  137.7608  162.7193 C.3     1  UNL1        0.0722
@<TRIPOS>BOND
     1    27    28    1
     2    28    29    1
     3    29    30    1
     4    30    31    1
     5    31    26    1
     6    26    24    1
     7    24     1    1
     8     1     2    2
     9     2     3    1
    10     3     4    2
    11     3     5    1
    12     5     6    2
    13     6     8    1
    14     8     9   ar
    15     9    10   ar
    16    10    11   ar
    17    11    13    1
    18    13    14   ar
    19    14    15   ar
    20    15    16   ar
    21    16    19    1
    22    19    20    1
    23    20    21    1
    24    20    22    1
    25    20    23    1
    26    16    17   ar
    27    17    18   ar
    28    11    12   ar
    29     5     7    1
    30    31    32    1
    31    32    33    1
    32    33    28    1
    33     7     1    1
    34    12     8   ar
    35    18    13   ar
    36    24    25    1
