@<TRIPOS>MOLECULE
*****
 28 31 0 0 0
SMALL
GASTEIGER

@<TRIPOS>ATOM
      1 C         141.8038  143.9009  161.3656 C.2     1  UNL1        0.1518
      2 N         143.1708  144.4118  161.7124 N.2     1  UNL1       -0.1775
      3 C         141.1355  142.8883  162.2477 C.ar    1  UNL1        0.0237
      4 C         141.2601  141.4258  161.9386 C.ar    1  UNL1        0.0030
      5 C         140.5918  140.4133  162.8208 C.ar    1  UNL1        0.0184
      6 C         139.7990  140.8633  164.0120 C.ar    1  UNL1        0.1056
      7 C         139.6744  142.3258  164.3210 C.ar    1  UNL1        0.0184
      8 C         140.3427  143.3383  163.4389 C.ar    1  UNL1        0.0030
      9 S         139.1307  139.8507  164.8941 S.O2    1  UNL1        0.0070
     10 O         138.1366  139.5613  163.8088 O.2     1  UNL1       -0.1687
     11 O         140.1248  140.1400  165.9794 O.2     1  UNL1       -0.1687
     12 C         138.4624  138.8381  165.7762 C.3     1  UNL1        0.1339
     13 C         138.1425  137.4096  166.1029 C.3     1  UNL1        0.0257
     14 C         137.6248  138.5129  166.9773 C.3     1  UNL1        0.0257
     15 N         143.8695  143.9102  162.9413 N.pl3   1  UNL1       -0.2327
     16 C         143.8270  144.5438  164.3003 C.3     1  UNL1        0.1110
     17 C         144.6646  143.7120  165.2258 C.3     1  UNL1        0.0250
     18 C         145.2247  142.5644  164.4389 C.3     1  UNL1        0.0250
     19 C         144.7333  142.6869  163.0270 C.3     1  UNL1        0.1110
     20 O         139.6380  144.1501  159.9523 O.2     1  UNL1       -0.2681
     21 C         141.1051  144.4025  160.1367 C.2     1  UNL1        0.2702
     22 N         141.8735  145.1565  159.0921 N.am    1  UNL1       -0.2593
     23 H         142.8364  145.3222  159.2131 H       1  UNL1        0.1571
     24 C         141.1748  145.6581  157.8632 C.ar    1  UNL1        0.1658
     25 N         139.9180  146.4765  157.8357 N.ar    1  UNL1       -0.2224
     26 C         139.5766  146.7536  156.4016 C.ar    1  UNL1        0.1079
     27 C         140.6225  146.1064  155.5427 C.ar    1  UNL1        0.0588
     28 S         141.6102  145.4294  156.4461 S.2     1  UNL1       -0.0508
@<TRIPOS>BOND
     1    20    21    2
     2    21    22   am
     3    22    24    1
     4    24    25   ar
     5    25    26   ar
     6    26    27   ar
     7    27    28   ar
     8    21     1    1
     9     1     2    2
    10     2    15    1
    11    15    16    1
    12    16    17    1
    13    17    18    1
    14    18    19    1
    15     1     3    1
    16     3     4   ar
    17     4     5   ar
    18     5     6   ar
    19     6     9    1
    20     9    10    2
    21     9    11    2
    22     9    12    1
    23    12    13    1
    24    13    14    1
    25     6     7   ar
    26     7     8   ar
    27    28    24   ar
    28    19    15    1
    29     8     3   ar
    30    14    12    1
    31    22    23    1
@<TRIPOS>MOLECULE
*****
 28 31 0 0 0
SMALL
GASTEIGER

@<TRIPOS>ATOM
      1 C         142.5050  139.6530  170.0339 C.2     1  UNL1        0.1518
      2 N         142.3951  140.7701  171.0289 N.2     1  UNL1       -0.1775
      3 C         141.7155  139.7034  168.7595 C.ar    1  UNL1        0.0237
      4 C         140.2185  139.7841  168.8073 C.ar    1  UNL1        0.0030
      5 C         139.4290  139.8344  167.5329 C.ar    1  UNL1        0.0184
      6 C         140.1366  139.8041  166.2106 C.ar    1  UNL1        0.1056
      7 C         141.6336  139.7234  166.1628 C.ar    1  UNL1        0.0184
      8 C         142.4231  139.6731  167.4372 C.ar    1  UNL1        0.0030
      9 S         139.3471  139.8545  164.9362 S.O2    1  UNL1        0.0070
     10 O         140.3674  140.7787  164.3407 O.2     1  UNL1       -0.1687
     11 O         138.3267  138.9302  165.5317 O.2     1  UNL1       -0.1687
     12 C         138.5576  139.9049  163.6618 C.3     1  UNL1        0.1339
     13 C         138.1173  139.2619  162.3801 C.3     1  UNL1        0.0257
     14 C         137.6304  140.6352  162.7360 C.3     1  UNL1        0.0257
     15 N         141.4956  141.9376  170.7494 N.pl3   1  UNL1       -0.2327
     16 C         140.1241  142.1501  171.3185 C.3     1  UNL1        0.1110
     17 C         139.5907  143.4413  170.7726 C.3     1  UNL1        0.0250
     18 C         140.6325  144.0269  169.8660 C.3     1  UNL1        0.0250
     19 C         141.8098  143.0976  169.8518 C.3     1  UNL1        0.1110
     20 O         143.5421  137.3860  169.3024 O.2     1  UNL1       -0.2681
     21 C         143.4044  138.4856  170.3134 C.2     1  UNL1        0.2702
     22 N         144.1662  138.4177  171.6038 N.am    1  UNL1       -0.2593
     23 H         144.0759  139.1393  172.2673 H       1  UNL1        0.1571
     24 C         145.0656  137.2502  171.8832 C.ar    1  UNL1        0.1658
     25 N         146.5651  137.2636  171.8454 N.ar    1  UNL1       -0.2224
     26 C         147.0497  135.8861  172.1883 C.ar    1  UNL1        0.1079
     27 C         145.8497  135.0213  172.4381 C.ar    1  UNL1        0.0588
     28 S         144.6235  135.8645  172.2496 S.2     1  UNL1       -0.0508
@<TRIPOS>BOND
     1    20    21    2
     2    21    22   am
     3    22    24    1
     4    24    25   ar
     5    25    26   ar
     6    26    27   ar
     7    27    28   ar
     8    21     1    1
     9     1     2    2
    10     2    15    1
    11    15    16    1
    12    16    17    1
    13    17    18    1
    14    18    19    1
    15     1     3    1
    16     3     4   ar
    17     4     5   ar
    18     5     6   ar
    19     6     9    1
    20     9    10    2
    21     9    11    2
    22     9    12    1
    23    12    13    1
    24    13    14    1
    25     6     7   ar
    26     7     8   ar
    27    28    24   ar
    28    19    15    1
    29     8     3   ar
    30    14    12    1
    31    22    23    1
@<TRIPOS>MOLECULE
*****
 28 31 0 0 0
SMALL
GASTEIGER

@<TRIPOS>ATOM
      1 C         143.7638  140.9690  161.1125 C.2     1  UNL1        0.1518
      2 N         144.6425  142.1355  161.4549 N.2     1  UNL1       -0.1775
      3 C         142.7362  140.4903  162.0948 C.ar    1  UNL1        0.0237
      4 C         143.0931  139.4350  163.0992 C.ar    1  UNL1        0.0030
      5 C         142.0655  138.9563  164.0814 C.ar    1  UNL1        0.0184
      6 C         140.6810  139.5329  164.0593 C.ar    1  UNL1        0.1056
      7 C         140.3240  140.5882  163.0549 C.ar    1  UNL1        0.0184
      8 C         141.3516  141.0669  162.0726 C.ar    1  UNL1        0.0030
      9 S         139.6534  139.0542  165.0416 S.O2    1  UNL1        0.0070
     10 O         140.6822  139.0846  166.1327 O.2     1  UNL1       -0.1687
     11 O         138.6245  139.0237  163.9506 O.2     1  UNL1       -0.1687
     12 C         138.6258  138.5755  166.0239 C.3     1  UNL1        0.1339
     13 C         137.7088  138.8454  167.1798 C.3     1  UNL1        0.0257
     14 C         137.7631  137.4763  166.5694 C.3     1  UNL1        0.0257
     15 N         144.4935  142.8232  162.7797 N.pl3   1  UNL1       -0.2327
     16 C         145.0306  142.3344  164.0921 C.3     1  UNL1        0.1110
     17 C         144.6504  143.3295  165.1481 C.3     1  UNL1        0.0250
     18 C         143.8783  144.4335  164.4882 C.3     1  UNL1        0.0250
     19 C         143.7814  144.1205  163.0245 C.3     1  UNL1        0.1110
     20 O         143.9512  138.7833  159.7206 O.2     1  UNL1       -0.2681
     21 C         143.9127  140.2813  159.7878 C.2     1  UNL1        0.2702
     22 N         144.0230  141.0916  158.5302 N.am    1  UNL1       -0.2593
     23 H         143.9977  142.0747  158.5743 H       1  UNL1        0.1571
     24 C         144.1719  140.4038  157.2056 C.ar    1  UNL1        0.1658
     25 N         145.4550  140.2058  156.4543 N.ar    1  UNL1       -0.2224
     26 C         145.1400  139.4730  155.1840 C.ar    1  UNL1        0.1079
     27 C         143.6621  139.2181  155.1501 C.ar    1  UNL1        0.0588
     28 S         143.0639  139.7934  156.3996 S.2     1  UNL1       -0.0508
@<TRIPOS>BOND
     1    20    21    2
     2    21    22   am
     3    22    24    1
     4    24    25   ar
     5    25    26   ar
     6    26    27   ar
     7    27    28   ar
     8    21     1    1
     9     1     2    2
    10     2    15    1
    11    15    16    1
    12    16    17    1
    13    17    18    1
    14    18    19    1
    15     1     3    1
    16     3     4   ar
    17     4     5   ar
    18     5     6   ar
    19     6     9    1
    20     9    10    2
    21     9    11    2
    22     9    12    1
    23    12    13    1
    24    13    14    1
    25     6     7   ar
    26     7     8   ar
    27    28    24   ar
    28    19    15    1
    29     8     3   ar
    30    14    12    1
    31    22    23    1
@<TRIPOS>MOLECULE
*****
 28 31 0 0 0
SMALL
GASTEIGER

@<TRIPOS>ATOM
      1 C         143.4518  140.1188  160.4668 C.2     1  UNL1        0.1518
      2 N         144.4919  141.1675  160.7286 N.2     1  UNL1       -0.1775
      3 C         142.4750  139.7463  161.5425 C.ar    1  UNL1        0.0237
      4 C         142.8231  138.6756  162.5337 C.ar    1  UNL1        0.0030
      5 C         141.8464  138.3030  163.6093 C.ar    1  UNL1        0.0184
      6 C         140.5214  139.0012  163.6938 C.ar    1  UNL1        0.1056
      7 C         140.1733  140.0719  162.7027 C.ar    1  UNL1        0.0184
      8 C         141.1501  140.4444  161.6271 C.ar    1  UNL1        0.0030
      9 S         139.5446  138.6286  164.7696 S.O2    1  UNL1        0.0070
     10 O         140.6085  138.8343  165.8068 O.2     1  UNL1       -0.1687
     11 O         138.4808  138.4229  163.7324 O.2     1  UNL1       -0.1687
     12 C         138.5679  138.2561  165.8453 C.3     1  UNL1        0.1339
     13 C         137.7296  137.2227  166.5376 C.3     1  UNL1        0.0257
     14 C         137.7145  138.6442  167.0162 C.3     1  UNL1        0.0257
     15 N         144.5551  141.8436  162.0662 N.pl3   1  UNL1       -0.2327
     16 C         143.8233  143.0929  162.4581 C.3     1  UNL1        0.1110
     17 C         144.1772  143.4105  163.8807 C.3     1  UNL1        0.0250
     18 C         145.1278  142.3574  164.3681 C.3     1  UNL1        0.0250
     19 C         145.3613  141.3890  163.2466 C.3     1  UNL1        0.1110
     20 O         144.2590  139.9210  158.0052 O.2     1  UNL1       -0.2681
     21 C         143.3885  139.4427  159.1293 C.2     1  UNL1        0.2702
     22 N         142.4547  138.2883  158.9159 N.am    1  UNL1       -0.2593
     23 H         141.8834  137.9744  159.6537 H       1  UNL1        0.1571
     24 C         142.3915  137.6122  157.5785 C.ar    1  UNL1        0.1658
     25 N         143.2886  136.5069  157.1060 N.ar    1  UNL1       -0.2224
     26 C         142.8716  136.1343  155.7142 C.ar    1  UNL1        0.1079
     27 C         141.7166  137.0094  155.3264 C.ar    1  UNL1        0.0588
     28 S         141.4199  137.9228  156.4786 S.2     1  UNL1       -0.0508
@<TRIPOS>BOND
     1    20    21    2
     2    21    22   am
     3    22    24    1
     4    24    25   ar
     5    25    26   ar
     6    26    27   ar
     7    27    28   ar
     8    21     1    1
     9     1     2    2
    10     2    15    1
    11    15    16    1
    12    16    17    1
    13    17    18    1
    14    18    19    1
    15     1     3    1
    16     3     4   ar
    17     4     5   ar
    18     5     6   ar
    19     6     9    1
    20     9    10    2
    21     9    11    2
    22     9    12    1
    23    12    13    1
    24    13    14    1
    25     6     7   ar
    26     7     8   ar
    27    28    24   ar
    28    19    15    1
    29     8     3   ar
    30    14    12    1
    31    22    23    1
@<TRIPOS>MOLECULE
*****
 28 31 0 0 0
SMALL
GASTEIGER

@<TRIPOS>ATOM
      1 C         140.0207  140.4865  161.9936 C.2     1  UNL1        0.1518
      2 N         139.2471  141.7136  161.6117 N.2     1  UNL1       -0.1775
      3 C         140.4907  140.3058  163.4066 C.ar    1  UNL1        0.0237
      4 C         141.8486  140.7960  163.8138 C.ar    1  UNL1        0.0030
      5 C         142.3185  140.6153  165.2267 C.ar    1  UNL1        0.0184
      6 C         141.4306  139.9444  166.2325 C.ar    1  UNL1        0.1056
      7 C         140.0727  139.4542  165.8253 C.ar    1  UNL1        0.0184
      8 C         139.6028  139.6349  164.4124 C.ar    1  UNL1        0.0030
      9 S         141.9006  139.7637  167.6455 S.O2    1  UNL1        0.0070
     10 O         140.6950  140.5056  168.1414 O.2     1  UNL1       -0.1687
     11 O         143.1063  139.0219  167.1496 O.2     1  UNL1       -0.1687
     12 C         142.3706  139.5831  169.0584 C.3     1  UNL1        0.1339
     13 C         142.9158  140.1622  170.3302 C.3     1  UNL1        0.0257
     14 C         142.6394  138.6910  170.2340 C.3     1  UNL1        0.0257
     15 N         138.9436  142.7600  162.6427 N.pl3   1  UNL1       -0.2327
     16 C         137.7281  142.8066  163.5204 C.3     1  UNL1        0.1110
     17 C         137.8357  144.0189  164.3972 C.3     1  UNL1        0.0250
     18 C         139.1177  144.7216  164.0614 C.3     1  UNL1        0.0250
     19 C         139.8024  143.9435  162.9771 C.3     1  UNL1        0.1110
     20 O         139.9901  138.0028  161.2319 O.2     1  UNL1       -0.2681
     21 C         140.3242  139.4401  160.9626 C.2     1  UNL1        0.2702
     22 N         140.9617  139.8310  159.6623 N.am    1  UNL1       -0.2593
     23 H         141.1810  140.7744  159.4856 H       1  UNL1        0.1571
     24 C         141.2652  138.7846  158.6314 C.ar    1  UNL1        0.1658
     25 N         142.5636  138.0496  158.4769 N.ar    1  UNL1       -0.2224
     26 C         142.4245  137.1003  157.3239 C.ar    1  UNL1        0.1079
     27 C         141.0401  137.2485  156.7658 C.ar    1  UNL1        0.0588
     28 S         140.3236  138.2895  157.5739 S.2     1  UNL1       -0.0508
@<TRIPOS>BOND
     1    20    21    2
     2    21    22   am
     3    22    24    1
     4    24    25   ar
     5    25    26   ar
     6    26    27   ar
     7    27    28   ar
     8    21     1    1
     9     1     2    2
    10     2    15    1
    11    15    16    1
    12    16    17    1
    13    17    18    1
    14    18    19    1
    15     1     3    1
    16     3     4   ar
    17     4     5   ar
    18     5     6   ar
    19     6     9    1
    20     9    10    2
    21     9    11    2
    22     9    12    1
    23    12    13    1
    24    13    14    1
    25     6     7   ar
    26     7     8   ar
    27    28    24   ar
    28    19    15    1
    29     8     3   ar
    30    14    12    1
    31    22    23    1
@<TRIPOS>MOLECULE
*****
 28 31 0 0 0
SMALL
GASTEIGER

@<TRIPOS>ATOM
      1 C         140.3644  141.1961  164.9562 C.2     1  UNL1        0.1518
      2 N         139.8355  139.7942  164.8866 N.2     1  UNL1       -0.1775
      3 C         140.5028  142.0086  163.7029 C.ar    1  UNL1        0.0237
      4 C         139.3646  142.8668  163.2359 C.ar    1  UNL1        0.0030
      5 C         139.5031  143.6792  161.9826 C.ar    1  UNL1        0.0184
      6 C         140.7797  143.6334  161.1963 C.ar    1  UNL1        0.1056
      7 C         141.9178  142.7753  161.6633 C.ar    1  UNL1        0.0184
      8 C         141.7794  141.9629  162.9166 C.ar    1  UNL1        0.0030
      9 S         140.9180  144.4459  159.9430 S.O2    1  UNL1        0.0070
     10 O         142.3514  144.7275  160.2838 O.2     1  UNL1       -0.1687
     11 O         139.4847  144.1643  159.6021 O.2     1  UNL1       -0.1687
     12 C         141.0565  145.2584  158.6897 C.3     1  UNL1        0.1339
     13 C         141.9193  145.8607  157.6207 C.3     1  UNL1        0.0257
     14 C         140.4334  146.0632  157.5879 C.3     1  UNL1        0.0257
     15 N         139.4449  139.2048  163.5637 N.pl3   1  UNL1       -0.2327
     16 C         138.0997  139.3195  162.9099 C.3     1  UNL1        0.1110
     17 C         138.1544  138.5828  161.6045 C.3     1  UNL1        0.0250
     18 C         139.5335  138.0127  161.4514 C.3     1  UNL1        0.0250
     19 C         140.3310  138.3971  162.6622 C.3     1  UNL1        0.1110
     20 O         140.2504  143.1418  166.6742 O.2     1  UNL1       -0.2681
     21 C         140.7550  141.7856  166.2791 C.2     1  UNL1        0.2702
     22 N         141.6501  141.0188  167.2069 N.am    1  UNL1       -0.2593
     23 H         141.9813  140.1286  166.9476 H       1  UNL1        0.1571
     24 C         142.0407  141.6082  168.5298 C.ar    1  UNL1        0.1658
     25 N         143.1938  142.5354  168.7759 N.ar    1  UNL1       -0.2224
     26 C         143.2125  142.8742  170.2370 C.ar    1  UNL1        0.1079
     27 C         142.0709  142.1564  170.8939 C.ar    1  UNL1        0.0588
     28 S         141.3467  141.3740  169.8388 S.2     1  UNL1       -0.0508
@<TRIPOS>BOND
     1    20    21    2
     2    21    22   am
     3    22    24    1
     4    24    25   ar
     5    25    26   ar
     6    26    27   ar
     7    27    28   ar
     8    21     1    1
     9     1     2    2
    10     2    15    1
    11    15    16    1
    12    16    17    1
    13    17    18    1
    14    18    19    1
    15     1     3    1
    16     3     4   ar
    17     4     5   ar
    18     5     6   ar
    19     6     9    1
    20     9    10    2
    21     9    11    2
    22     9    12    1
    23    12    13    1
    24    13    14    1
    25     6     7   ar
    26     7     8   ar
    27    28    24   ar
    28    19    15    1
    29     8     3   ar
    30    14    12    1
    31    22    23    1
@<TRIPOS>MOLECULE
*****
 28 31 0 0 0
SMALL
GASTEIGER

@<TRIPOS>ATOM
      1 C         142.0477  140.9702  161.7952 C.2     1  UNL1        0.1518
      2 N         142.6024  142.2748  161.3051 N.2     1  UNL1       -0.1775
      3 C         141.6104  140.8303  163.2233 C.ar    1  UNL1        0.0237
      4 C         140.1788  141.0768  163.5969 C.ar    1  UNL1        0.0030
      5 C         139.7416  140.9369  165.0249 C.ar    1  UNL1        0.0184
      6 C         140.7360  140.5505  166.0793 C.ar    1  UNL1        0.1056
      7 C         142.1676  140.3039  165.7057 C.ar    1  UNL1        0.0184
      8 C         142.6048  140.4438  164.2777 C.ar    1  UNL1        0.0030
      9 S         140.2987  140.4106  167.5074 S.O2    1  UNL1        0.0070
     10 O         139.1553  139.5428  167.0722 O.2     1  UNL1       -0.1687
     11 O         141.4422  141.2784  167.9425 O.2     1  UNL1       -0.1687
     12 C         139.8614  140.2707  168.9353 C.3     1  UNL1        0.1339
     13 C         138.7759  140.2981  169.9701 C.3     1  UNL1        0.0257
     14 C         140.1896  140.0009  170.3739 C.3     1  UNL1        0.0257
     15 N         142.7198  143.4396  162.2430 N.pl3   1  UNL1       -0.2327
     16 C         141.6181  144.3876  162.6137 C.3     1  UNL1        0.1110
     17 C         142.1769  145.3947  163.5747 C.3     1  UNL1        0.0250
     18 C         143.6241  145.0690  163.7980 C.3     1  UNL1        0.0250
     19 C         143.9595  143.8607  162.9749 C.3     1  UNL1        0.1110
     20 O         141.6360  138.4363  161.3949 O.2     1  UNL1       -0.2681
     21 C         141.9303  139.8055  160.8574 C.2     1  UNL1        0.2702
     22 N         142.1071  140.0098  159.3819 N.am    1  UNL1       -0.2593
     23 H         142.3002  140.9084  159.0290 H       1  UNL1        0.1571
     24 C         141.9897  138.8451  158.4440 C.ar    1  UNL1        0.1658
     25 N         143.0804  137.8729  158.1047 N.ar    1  UNL1       -0.2224
     26 C         142.5258  136.8750  157.1318 C.ar    1  UNL1        0.1079
     27 C         141.0922  137.2304  156.8698 C.ar    1  UNL1        0.0588
     28 S         140.7609  138.4480  157.6808 S.2     1  UNL1       -0.0508
@<TRIPOS>BOND
     1    20    21    2
     2    21    22   am
     3    22    24    1
     4    24    25   ar
     5    25    26   ar
     6    26    27   ar
     7    27    28   ar
     8    21     1    1
     9     1     2    2
    10     2    15    1
    11    15    16    1
    12    16    17    1
    13    17    18    1
    14    18    19    1
    15     1     3    1
    16     3     4   ar
    17     4     5   ar
    18     5     6   ar
    19     6     9    1
    20     9    10    2
    21     9    11    2
    22     9    12    1
    23    12    13    1
    24    13    14    1
    25     6     7   ar
    26     7     8   ar
    27    28    24   ar
    28    19    15    1
    29     8     3   ar
    30    14    12    1
    31    22    23    1
@<TRIPOS>MOLECULE
*****
 28 31 0 0 0
SMALL
GASTEIGER

@<TRIPOS>ATOM
      1 C         140.9701  140.1232  164.2329 C.2     1  UNL1        0.1518
      2 N         141.6488  138.7964  164.0625 N.2     1  UNL1       -0.1775
      3 C         140.9810  141.1205  163.1124 C.ar    1  UNL1        0.0237
      4 C         139.8870  141.1078  162.0864 C.ar    1  UNL1        0.0030
      5 C         139.8980  142.1051  160.9660 C.ar    1  UNL1        0.0184
      6 C         141.0029  143.1152  160.8718 C.ar    1  UNL1        0.1056
      7 C         142.0970  143.1278  161.8979 C.ar    1  UNL1        0.0184
      8 C         142.0860  142.1305  163.0182 C.ar    1  UNL1        0.0030
      9 S         141.0139  144.1125  159.7514 S.O2    1  UNL1        0.0070
     10 O         142.4953  144.2805  159.9154 O.2     1  UNL1       -0.1687
     11 O         139.5324  143.9445  159.5873 O.2     1  UNL1       -0.1687
     12 C         141.0248  145.1098  158.6310 C.3     1  UNL1        0.1339
     13 C         140.2931  146.0620  157.7323 C.3     1  UNL1        0.0257
     14 C         141.7757  145.8850  157.5892 C.3     1  UNL1        0.0257
     15 N         142.3384  138.4670  162.7718 N.pl3   1  UNL1       -0.2327
     16 C         143.7820  138.7214  162.4535 C.3     1  UNL1        0.1110
     17 C         144.0413  138.2369  161.0577 C.3     1  UNL1        0.0250
     18 C         142.7579  137.6831  160.5134 C.3     1  UNL1        0.0250
     19 C         141.7055  137.8253  161.5727 C.3     1  UNL1        0.1110
     20 O         138.8718  140.9679  165.5110 O.2     1  UNL1       -0.2681
     21 C         140.2805  140.4526  165.5235 C.2     1  UNL1        0.2702
     22 N         140.9995  140.2668  166.8268 N.am    1  UNL1       -0.2593
     23 H         141.9241  139.9286  166.8351 H       1  UNL1        0.1571
     24 C         140.3099  140.5963  168.1175 C.ar    1  UNL1        0.1658
     25 N         139.2598  139.7652  168.7931 N.ar    1  UNL1       -0.2224
     26 C         138.8502  140.4699  170.0523 C.ar    1  UNL1        0.1079
     27 C         139.6472  141.7366  170.1549 C.ar    1  UNL1        0.0588
     28 S         140.5494  141.8146  168.9591 S.2     1  UNL1       -0.0508
@<TRIPOS>BOND
     1    20    21    2
     2    21    22   am
     3    22    24    1
     4    24    25   ar
     5    25    26   ar
     6    26    27   ar
     7    27    28   ar
     8    21     1    1
     9     1     2    2
    10     2    15    1
    11    15    16    1
    12    16    17    1
    13    17    18    1
    14    18    19    1
    15     1     3    1
    16     3     4   ar
    17     4     5   ar
    18     5     6   ar
    19     6     9    1
    20     9    10    2
    21     9    11    2
    22     9    12    1
    23    12    13    1
    24    13    14    1
    25     6     7   ar
    26     7     8   ar
    27    28    24   ar
    28    19    15    1
    29     8     3   ar
    30    14    12    1
    31    22    23    1
@<TRIPOS>MOLECULE
*****
 28 31 0 0 0
SMALL
GASTEIGER

@<TRIPOS>ATOM
      1 C         139.6485  140.1048  158.3264 C.2     1  UNL1        0.1518
      2 N         141.0389  140.3277  157.8095 N.2     1  UNL1       -0.1775
      3 C         139.4170  139.9087  159.7955 C.ar    1  UNL1        0.0237
      4 C         139.3679  141.0951  160.7120 C.ar    1  UNL1        0.0030
      5 C         139.1364  140.8989  162.1809 C.ar    1  UNL1        0.0184
      6 C         138.9540  139.5164  162.7334 C.ar    1  UNL1        0.1056
      7 C         139.0030  138.3300  161.8169 C.ar    1  UNL1        0.0184
      8 C         139.2346  138.5261  160.3479 C.ar    1  UNL1        0.0030
      9 S         138.7225  139.3203  164.2024 S.O2    1  UNL1        0.0070
     10 O         139.6257  138.1229  164.1849 O.2     1  UNL1       -0.1687
     11 O         137.8192  140.5176  164.2200 O.2     1  UNL1       -0.1687
     12 C         138.4910  139.1241  165.6714 C.3     1  UNL1        0.1339
     13 C         137.7056  138.5100  166.7921 C.3     1  UNL1        0.0257
     14 C         138.8755  139.3985  167.0951 C.3     1  UNL1        0.0257
     15 N         142.1977  140.3544  158.7616 N.pl3   1  UNL1       -0.2327
     16 C         142.9245  139.1576  159.2996 C.3     1  UNL1        0.1110
     17 C         144.0092  139.6461  160.2133 C.3     1  UNL1        0.0250
     18 C         143.9527  141.1449  160.2400 C.3     1  UNL1        0.0250
     19 C         142.8332  141.5826  159.3428 C.3     1  UNL1        0.1110
     20 O         138.4667  139.0873  156.2485 O.2     1  UNL1       -0.2681
     21 C         138.4897  140.0781  157.3744 C.2     1  UNL1        0.2702
     22 N         137.3537  141.0422  157.5483 N.am    1  UNL1       -0.2593
     23 H         137.3688  141.6926  158.2873 H       1  UNL1        0.1571
     24 C         136.1949  141.0155  156.5963 C.ar    1  UNL1        0.1658
     25 N         134.9724  140.1551  156.7194 N.ar    1  UNL1       -0.2224
     26 C         134.0771  140.4524  155.5532 C.ar    1  UNL1        0.1079
     27 C         134.7462  141.4965  154.7093 C.ar    1  UNL1        0.0588
     28 S         136.0551  141.8445  155.3540 S.2     1  UNL1       -0.0508
@<TRIPOS>BOND
     1    20    21    2
     2    21    22   am
     3    22    24    1
     4    24    25   ar
     5    25    26   ar
     6    26    27   ar
     7    27    28   ar
     8    21     1    1
     9     1     2    2
    10     2    15    1
    11    15    16    1
    12    16    17    1
    13    17    18    1
    14    18    19    1
    15     1     3    1
    16     3     4   ar
    17     4     5   ar
    18     5     6   ar
    19     6     9    1
    20     9    10    2
    21     9    11    2
    22     9    12    1
    23    12    13    1
    24    13    14    1
    25     6     7   ar
    26     7     8   ar
    27    28    24   ar
    28    19    15    1
    29     8     3   ar
    30    14    12    1
    31    22    23    1
