@<TRIPOS>MOLECULE
*****
 33 37 0 0 0
SMALL
GASTEIGER

@<TRIPOS>ATOM
      1 C         138.7705  139.2826  159.5651 C.3     1  UNL1        0.0294
      2 C         139.3762  138.3868  160.6048 C.3     1  UNL1        0.0666
      3 S         138.5932  138.0260  161.8322 S.3     1  UNL1       -0.0756
      4 C         140.6435  137.3838  164.2885 C.3     1  UNL1        0.1340
      5 N         139.6909  138.5401  164.2146 N.ar    1  UNL1       -0.2884
      6 C         138.7485  138.8353  163.0856 C.ar    1  UNL1        0.1932
      7 N         137.9885  140.0818  163.4299 N.ar    1  UNL1       -0.1221
      8 N         138.4612  140.5571  164.7718 N.ar    1  UNL1       -0.1282
      9 C         139.5134  139.6043  165.2568 C.ar    1  UNL1        0.1670
     10 C         140.2574  139.6990  166.5559 C.ar    1  UNL1        0.0422
     11 C         141.7562  139.6422  166.5676 C.ar    1  UNL1        0.0219
     12 C         142.5002  139.7369  167.8667 C.ar    1  UNL1        0.0785
     13 N         141.7452  139.8884  169.1540 N.ar    1  UNL1       -0.2922
     14 C         142.4892  139.9832  170.4530 C.3     1  UNL1        0.1336
     15 C         140.2463  139.9453  169.1422 C.ar    1  UNL1        0.2611
     16 O         139.4915  140.0968  170.4295 O.2     1  UNL1       -0.2670
     17 C         139.5024  139.8506  167.8431 C.ar    1  UNL1        0.0638
     18 C         139.3071  140.6689  159.3647 C.3     1  UNL1        0.0731
     19 N         139.2511  141.6641  160.4855 N.3     1  UNL1       -0.2712
     20 C         138.0562  142.4800  160.8812 C.3     1  UNL1        0.0738
     21 C         138.4467  143.3384  162.0476 C.3     1  UNL1        0.0372
     22 C         137.9496  144.3731  163.0131 C.3     1  UNL1        0.0245
     23 C         139.0786  144.7273  163.9351 C.3     1  UNL1        0.0909
     24 N         140.2735  143.9114  163.5394 N.pl3   1  UNL1       -0.3077
     25 C         139.8830  143.0530  162.3729 C.3     1  UNL1        0.0901
     26 C         140.3801  142.0183  161.4074 C.3     1  UNL1        0.0921
     27 C         141.6221  143.9475  164.1950 C.ar    1  UNL1        0.0480
     28 C         142.5942  145.0370  163.8513 C.ar    1  UNL1        0.0168
     29 C         143.9428  145.0731  164.5070 C.ar    1  UNL1        0.0309
     30 C         144.3194  144.0199  165.5064 C.ar    1  UNL1        0.1402
     31 F         145.6680  144.0560  166.1620 F       1  UNL1       -0.2042
     32 C         143.3473  142.9303  165.8501 C.ar    1  UNL1        0.0309
     33 C         141.9987  142.8942  165.1944 C.ar    1  UNL1        0.0168
@<TRIPOS>BOND
     1     4     5    1
     2     5     6   ar
     3     6     3    1
     4     3     2    1
     5     2     1    1
     6     1    18    1
     7    18    19    1
     8    19    20    1
     9    20    21    1
    10    21    22    1
    11    22    23    1
    12    23    24    1
    13    24    27    1
    14    27    28   ar
    15    28    29   ar
    16    29    30   ar
    17    30    31    1
    18    30    32   ar
    19    32    33   ar
    20    24    25    1
    21    25    26    1
    22     6     7   ar
    23     7     8   ar
    24     8     9   ar
    25     9    10    1
    26    10    11   ar
    27    11    12   ar
    28    12    13   ar
    29    13    14    1
    30    13    15   ar
    31    15    16    2
    32    15    17   ar
    33     9     5   ar
    34    17    10   ar
    35    26    19    1
    36    25    21    1
    37    33    27   ar
@<TRIPOS>MOLECULE
*****
 33 37 0 0 0
SMALL
GASTEIGER

@<TRIPOS>ATOM
      1 C         140.4918  142.7353  169.5821 C.3     1  UNL1        0.0294
      2 C         141.8008  142.8547  170.3047 C.3     1  UNL1        0.0666
      3 S         143.0697  142.4165  169.6353 S.3     1  UNL1       -0.0756
      4 C         143.1927  142.3980  166.3743 C.3     1  UNL1        0.1340
      5 N         143.1304  141.1899  167.2611 N.ar    1  UNL1       -0.2884
      6 C         143.0738  141.1984  168.7600 C.ar    1  UNL1        0.1932
      7 N         143.0221  139.7748  169.2301 N.ar    1  UNL1       -0.1221
      8 N         143.0468  138.8865  168.0217 N.ar    1  UNL1       -0.1282
      9 C         143.1136  139.7610  166.8047 C.ar    1  UNL1        0.1670
     10 C         143.1563  139.2895  165.3814 C.ar    1  UNL1        0.0422
     11 C         144.2400  139.7722  164.4635 C.ar    1  UNL1        0.0219
     12 C         144.2827  139.3007  163.0402 C.ar    1  UNL1        0.0785
     13 N         143.2416  138.3464  162.5348 N.ar    1  UNL1       -0.2922
     14 C         143.2842  137.8748  161.1115 C.3     1  UNL1        0.1336
     15 C         142.1578  137.8636  163.4527 C.ar    1  UNL1        0.2611
     16 O         141.1168  136.9093  162.9472 O.2     1  UNL1       -0.2670
     17 C         142.1152  138.3352  164.8760 C.ar    1  UNL1        0.0638
     18 C         139.8197  141.3996  169.4631 C.3     1  UNL1        0.0731
     19 N         139.5304  140.8235  168.1087 N.3     1  UNL1       -0.2712
     20 C         138.8834  139.4984  167.8340 C.3     1  UNL1        0.0738
     21 C         138.7905  139.3274  166.3467 C.3     1  UNL1        0.0372
     22 C         138.3332  138.4028  165.2577 C.3     1  UNL1        0.0245
     23 C         138.6402  139.0506  163.9401 C.3     1  UNL1        0.0909
     24 N         139.2872  140.3758  164.2148 N.pl3   1  UNL1       -0.3077
     25 C         139.3801  140.5468  165.7022 C.3     1  UNL1        0.0901
     26 C         139.8374  141.4715  166.7911 C.3     1  UNL1        0.0921
     27 C         139.7586  141.3575  163.1833 C.ar    1  UNL1        0.0480
     28 C         138.8225  141.8226  162.1075 C.ar    1  UNL1        0.0168
     29 C         139.2938  142.8043  161.0760 C.ar    1  UNL1        0.0309
     30 C         140.7013  143.3209  161.1202 C.ar    1  UNL1        0.1402
     31 F         141.1727  144.3027  160.0887 F       1  UNL1       -0.2042
     32 C         141.6375  142.8559  162.1961 C.ar    1  UNL1        0.0309
     33 C         141.1662  141.8742  163.2276 C.ar    1  UNL1        0.0168
@<TRIPOS>BOND
     1     4     5    1
     2     5     6   ar
     3     6     3    1
     4     3     2    1
     5     2     1    1
     6     1    18    1
     7    18    19    1
     8    19    20    1
     9    20    21    1
    10    21    22    1
    11    22    23    1
    12    23    24    1
    13    24    27    1
    14    27    28   ar
    15    28    29   ar
    16    29    30   ar
    17    30    31    1
    18    30    32   ar
    19    32    33   ar
    20    24    25    1
    21    25    26    1
    22     6     7   ar
    23     7     8   ar
    24     8     9   ar
    25     9    10    1
    26    10    11   ar
    27    11    12   ar
    28    12    13   ar
    29    13    14    1
    30    13    15   ar
    31    15    16    2
    32    15    17   ar
    33     9     5   ar
    34    17    10   ar
    35    26    19    1
    36    25    21    1
    37    33    27   ar
@<TRIPOS>MOLECULE
*****
 33 37 0 0 0
SMALL
GASTEIGER

@<TRIPOS>ATOM
      1 C         138.5581  138.0184  161.0314 C.3     1  UNL1        0.0294
      2 C         138.2428  137.9664  162.4970 C.3     1  UNL1        0.0666
      3 S         139.3365  137.7099  163.4909 S.3     1  UNL1       -0.0756
      4 C         141.6973  139.5472  164.7949 C.3     1  UNL1        0.1340
      5 N         140.3824  139.2158  165.4360 N.ar    1  UNL1       -0.2884
      6 C         139.2972  138.3713  164.8366 C.ar    1  UNL1        0.1932
      7 N         138.1659  138.3042  165.8193 N.ar    1  UNL1       -0.1221
      8 N         138.5518  139.1072  167.0260 N.ar    1  UNL1       -0.1282
      9 C         139.9217  139.6707  166.7892 C.ar    1  UNL1        0.1670
     10 C         140.6950  140.5369  167.7387 C.ar    1  UNL1        0.0422
     11 C         142.0417  140.0949  168.2299 C.ar    1  UNL1        0.0219
     12 C         142.8150  140.9611  169.1795 C.ar    1  UNL1        0.0785
     13 N         142.2416  142.2693  169.6378 N.ar    1  UNL1       -0.2922
     14 C         143.0150  143.1355  170.5874 C.3     1  UNL1        0.1336
     15 C         140.8950  142.7112  169.1466 C.ar    1  UNL1        0.2611
     16 O         140.3218  144.0194  169.6050 O.2     1  UNL1       -0.2670
     17 C         140.1217  141.8450  168.1970 C.ar    1  UNL1        0.0638
     18 C         139.2373  139.2240  160.4526 C.3     1  UNL1        0.0731
     19 N         139.2116  140.5276  161.1941 N.3     1  UNL1       -0.2712
     20 C         138.0596  141.4866  161.2519 C.3     1  UNL1        0.0738
     21 C         138.4695  142.6527  162.1016 C.3     1  UNL1        0.0372
     22 C         138.0109  143.9662  162.6624 C.3     1  UNL1        0.0245
     23 C         139.1327  144.5398  163.4764 C.3     1  UNL1        0.0909
     24 N         140.2848  143.5807  163.4186 N.pl3   1  UNL1       -0.3077
     25 C         139.8748  142.4146  162.5689 C.3     1  UNL1        0.0901
     26 C         140.3335  141.1011  162.0081 C.3     1  UNL1        0.0921
     27 C         141.6133  143.7570  164.0923 C.ar    1  UNL1        0.0480
     28 C         142.0459  142.7969  165.1605 C.ar    1  UNL1        0.0168
     29 C         143.3745  142.9732  165.8341 C.ar    1  UNL1        0.0309
     30 C         144.2705  144.1096  165.4395 C.ar    1  UNL1        0.1402
     31 F         145.5991  144.2859  166.1132 F       1  UNL1       -0.2042
     32 C         143.8380  145.0697  164.3713 C.ar    1  UNL1        0.0309
     33 C         142.5094  144.8935  163.6976 C.ar    1  UNL1        0.0168
@<TRIPOS>BOND
     1     4     5    1
     2     5     6   ar
     3     6     3    1
     4     3     2    1
     5     2     1    1
     6     1    18    1
     7    18    19    1
     8    19    20    1
     9    20    21    1
    10    21    22    1
    11    22    23    1
    12    23    24    1
    13    24    27    1
    14    27    28   ar
    15    28    29   ar
    16    29    30   ar
    17    30    31    1
    18    30    32   ar
    19    32    33   ar
    20    24    25    1
    21    25    26    1
    22     6     7   ar
    23     7     8   ar
    24     8     9   ar
    25     9    10    1
    26    10    11   ar
    27    11    12   ar
    28    12    13   ar
    29    13    14    1
    30    13    15   ar
    31    15    16    2
    32    15    17   ar
    33     9     5   ar
    34    17    10   ar
    35    26    19    1
    36    25    21    1
    37    33    27   ar
@<TRIPOS>MOLECULE
*****
 33 37 0 0 0
SMALL
GASTEIGER

@<TRIPOS>ATOM
      1 C         143.8700  144.7611  162.9934 C.3     1  UNL1        0.0294
      2 C         144.4003  143.6472  162.1401 C.3     1  UNL1        0.0666
      3 S         144.9667  142.4153  162.7817 S.3     1  UNL1       -0.0756
      4 C         144.1147  142.9233  165.8907 C.3     1  UNL1        0.1340
      5 N         143.6937  141.7621  165.0396 N.ar    1  UNL1       -0.2884
      6 C         144.0853  141.5286  163.6105 C.ar    1  UNL1        0.1932
      7 N         143.4408  140.2528  163.1557 N.ar    1  UNL1       -0.1221
      8 N         142.6508  139.6977  164.3037 N.ar    1  UNL1       -0.1282
      9 C         142.8070  140.6305  165.4680 C.ar    1  UNL1        0.1670
     10 C         142.1858  140.4614  166.8228 C.ar    1  UNL1        0.0422
     11 C         140.9584  141.2426  167.1879 C.ar    1  UNL1        0.0219
     12 C         140.3372  141.0735  168.5427 C.ar    1  UNL1        0.0785
     13 N         140.9435  140.1231  169.5324 N.ar    1  UNL1       -0.2922
     14 C         140.3223  139.9540  170.8872 C.3     1  UNL1        0.1336
     15 C         142.1709  139.3420  169.1673 C.ar    1  UNL1        0.2611
     16 O         142.7770  138.3917  170.1570 O.2     1  UNL1       -0.2670
     17 C         142.7920  139.5111  167.8125 C.ar    1  UNL1        0.0638
     18 C         142.4279  145.1614  162.8931 C.3     1  UNL1        0.0731
     19 N         141.4072  144.1739  162.4104 N.3     1  UNL1       -0.2712
     20 C         140.6925  144.2177  161.0924 C.3     1  UNL1        0.0738
     21 C         139.7656  143.0401  161.0285 C.3     1  UNL1        0.0372
     22 C         138.7510  142.3393  160.1743 C.3     1  UNL1        0.0245
     23 C         138.2658  141.1346  160.9249 C.3     1  UNL1        0.0909
     24 N         138.9807  141.0908  162.2430 N.pl3   1  UNL1       -0.3077
     25 C         139.9075  142.2684  162.3069 C.3     1  UNL1        0.0901
     26 C         140.9221  142.9692  163.1611 C.3     1  UNL1        0.0921
     27 C         138.8002  140.0518  163.3097 C.ar    1  UNL1        0.0480
     28 C         138.3522  140.4566  164.6828 C.ar    1  UNL1        0.0168
     29 C         138.1718  139.4176  165.7495 C.ar    1  UNL1        0.0309
     30 C         138.4394  137.9739  165.4432 C.ar    1  UNL1        0.1402
     31 F         138.2590  136.9349  166.5100 F       1  UNL1       -0.2042
     32 C         138.8875  137.5690  164.0701 C.ar    1  UNL1        0.0309
     33 C         139.0679  138.6080  163.0034 C.ar    1  UNL1        0.0168
@<TRIPOS>BOND
     1     4     5    1
     2     5     6   ar
     3     6     3    1
     4     3     2    1
     5     2     1    1
     6     1    18    1
     7    18    19    1
     8    19    20    1
     9    20    21    1
    10    21    22    1
    11    22    23    1
    12    23    24    1
    13    24    27    1
    14    27    28   ar
    15    28    29   ar
    16    29    30   ar
    17    30    31    1
    18    30    32   ar
    19    32    33   ar
    20    24    25    1
    21    25    26    1
    22     6     7   ar
    23     7     8   ar
    24     8     9   ar
    25     9    10    1
    26    10    11   ar
    27    11    12   ar
    28    12    13   ar
    29    13    14    1
    30    13    15   ar
    31    15    16    2
    32    15    17   ar
    33     9     5   ar
    34    17    10   ar
    35    26    19    1
    36    25    21    1
    37    33    27   ar
@<TRIPOS>MOLECULE
*****
 33 37 0 0 0
SMALL
GASTEIGER

@<TRIPOS>ATOM
      1 C         142.5933  139.2948  160.2326 C.3     1  UNL1        0.0294
      2 C         144.0373  139.6261  160.4677 C.3     1  UNL1        0.0666
      3 S         144.4135  140.9328  161.1007 S.3     1  UNL1       -0.0756
      4 C         144.8387  139.5417  164.0219 C.3     1  UNL1        0.1340
      5 N         143.9590  140.7200  163.7261 N.ar    1  UNL1       -0.2884
      6 C         143.7635  141.3595  162.3834 C.ar    1  UNL1        0.1932
      7 N         142.8039  142.5005  162.5486 N.ar    1  UNL1       -0.1221
      8 N         142.4063  142.5662  163.9935 N.ar    1  UNL1       -0.1282
      9 C         143.1201  141.4658  164.7213 C.ar    1  UNL1        0.1670
     10 C         143.0138  141.1642  166.1868 C.ar    1  UNL1        0.0422
     11 C         142.6574  139.7808  166.6439 C.ar    1  UNL1        0.0219
     12 C         142.5510  139.4792  168.1094 C.ar    1  UNL1        0.0785
     13 N         142.8012  140.5612  169.1178 N.ar    1  UNL1       -0.2922
     14 C         142.6949  140.2596  170.5833 C.3     1  UNL1        0.1336
     15 C         143.1576  141.9447  168.6607 C.ar    1  UNL1        0.2611
     16 O         143.4078  143.0265  169.6692 O.2     1  UNL1       -0.2670
     17 C         143.2639  142.2462  167.1951 C.ar    1  UNL1        0.0638
     18 C         141.9793  138.1003  160.9005 C.3     1  UNL1        0.0731
     19 N         141.1230  138.2798  162.1188 N.3     1  UNL1       -0.2712
     20 C         140.5310  137.1806  162.9502 C.3     1  UNL1        0.0738
     21 C         139.7504  137.8116  164.0649 C.3     1  UNL1        0.0372
     22 C         138.9021  137.5223  165.2677 C.3     1  UNL1        0.0245
     23 C         138.4874  138.8326  165.8686 C.3     1  UNL1        0.0909
     24 N         139.0795  139.9318  165.0372 N.pl3   1  UNL1       -0.3077
     25 C         139.8600  139.3008  163.9225 C.3     1  UNL1        0.0901
     26 C         140.7084  139.5902  162.7197 C.3     1  UNL1        0.0921
     27 C         138.9192  141.4036  165.2782 C.ar    1  UNL1        0.0480
     28 C         137.9407  142.1951  164.4620 C.ar    1  UNL1        0.0168
     29 C         137.7804  143.6669  164.7030 C.ar    1  UNL1        0.0309
     30 C         138.5984  144.3473  165.7602 C.ar    1  UNL1        0.1402
     31 F         138.4381  145.8191  166.0012 F       1  UNL1       -0.2042
     32 C         139.5770  143.5558  166.5765 C.ar    1  UNL1        0.0309
     33 C         139.7373  142.0840  166.3355 C.ar    1  UNL1        0.0168
@<TRIPOS>BOND
     1     4     5    1
     2     5     6   ar
     3     6     3    1
     4     3     2    1
     5     2     1    1
     6     1    18    1
     7    18    19    1
     8    19    20    1
     9    20    21    1
    10    21    22    1
    11    22    23    1
    12    23    24    1
    13    24    27    1
    14    27    28   ar
    15    28    29   ar
    16    29    30   ar
    17    30    31    1
    18    30    32   ar
    19    32    33   ar
    20    24    25    1
    21    25    26    1
    22     6     7   ar
    23     7     8   ar
    24     8     9   ar
    25     9    10    1
    26    10    11   ar
    27    11    12   ar
    28    12    13   ar
    29    13    14    1
    30    13    15   ar
    31    15    16    2
    32    15    17   ar
    33     9     5   ar
    34    17    10   ar
    35    26    19    1
    36    25    21    1
    37    33    27   ar
@<TRIPOS>MOLECULE
*****
 33 37 0 0 0
SMALL
GASTEIGER

@<TRIPOS>ATOM
      1 C         144.2532  142.6939  160.4070 C.3     1  UNL1        0.0294
      2 C         144.5350  141.4705  161.2280 C.3     1  UNL1        0.0666
      3 S         145.0036  141.6105  162.6460 S.3     1  UNL1       -0.0756
      4 C         144.2207  143.1237  165.4293 C.3     1  UNL1        0.1340
      5 N         143.8299  141.7275  165.0447 N.ar    1  UNL1       -0.2884
      6 C         144.1898  141.0320  163.7654 C.ar    1  UNL1        0.1932
      7 N         143.5929  139.6563  163.8018 N.ar    1  UNL1       -0.1221
      8 N         142.8641  139.5017  165.1038 N.ar    1  UNL1       -0.1282
      9 C         143.0106  140.7817  165.8720 C.ar    1  UNL1        0.1670
     10 C         142.4382  141.0660  167.2290 C.ar    1  UNL1        0.0422
     11 C         142.7171  140.1342  168.3709 C.ar    1  UNL1        0.0219
     12 C         142.1448  140.4185  169.7279 C.ar    1  UNL1        0.0785
     13 N         141.2935  141.6348  169.9430 N.ar    1  UNL1       -0.2922
     14 C         140.7212  141.9191  171.3001 C.3     1  UNL1        0.1336
     15 C         141.0146  142.5666  168.8012 C.ar    1  UNL1        0.2611
     16 O         140.1634  143.7828  169.0164 O.2     1  UNL1       -0.2670
     17 C         141.5870  142.2822  167.4441 C.ar    1  UNL1        0.0638
     18 C         142.8465  143.1954  160.2666 C.3     1  UNL1        0.0731
     19 N         141.9494  143.2583  161.4672 N.3     1  UNL1       -0.2712
     20 C         141.5087  144.5057  162.1741 C.3     1  UNL1        0.0738
     21 C         140.6225  144.1031  163.3154 C.3     1  UNL1        0.0372
     22 C         139.8023  144.6252  164.4576 C.3     1  UNL1        0.0245
     23 C         139.1885  143.4517  165.1621 C.3     1  UNL1        0.0909
     24 N         139.6293  142.2043  164.4551 N.pl3   1  UNL1       -0.3077
     25 C         140.5155  142.6069  163.3138 C.3     1  UNL1        0.0901
     26 C         141.3357  142.0848  162.1716 C.3     1  UNL1        0.0921
     27 C         139.2504  140.8008  164.8246 C.ar    1  UNL1        0.0480
     28 C         138.8960  140.4685  166.2437 C.ar    1  UNL1        0.0168
     29 C         138.5171  139.0650  166.6132 C.ar    1  UNL1        0.0309
     30 C         138.4926  137.9937  165.5636 C.ar    1  UNL1        0.1402
     31 F         138.1137  136.5902  165.9331 F       1  UNL1       -0.2042
     32 C         138.8470  138.3259  164.1444 C.ar    1  UNL1        0.0309
     33 C         139.2259  139.7295  163.7749 C.ar    1  UNL1        0.0168
@<TRIPOS>BOND
     1     4     5    1
     2     5     6   ar
     3     6     3    1
     4     3     2    1
     5     2     1    1
     6     1    18    1
     7    18    19    1
     8    19    20    1
     9    20    21    1
    10    21    22    1
    11    22    23    1
    12    23    24    1
    13    24    27    1
    14    27    28   ar
    15    28    29   ar
    16    29    30   ar
    17    30    31    1
    18    30    32   ar
    19    32    33   ar
    20    24    25    1
    21    25    26    1
    22     6     7   ar
    23     7     8   ar
    24     8     9   ar
    25     9    10    1
    26    10    11   ar
    27    11    12   ar
    28    12    13   ar
    29    13    14    1
    30    13    15   ar
    31    15    16    2
    32    15    17   ar
    33     9     5   ar
    34    17    10   ar
    35    26    19    1
    36    25    21    1
    37    33    27   ar
@<TRIPOS>MOLECULE
*****
 33 37 0 0 0
SMALL
GASTEIGER

@<TRIPOS>ATOM
      1 C         141.2389  138.3683  159.6966 C.3     1  UNL1        0.0294
      2 C         139.8876  138.8434  160.1421 C.3     1  UNL1        0.0666
      3 S         139.1884  138.1574  161.2781 S.3     1  UNL1       -0.0756
      4 C         141.2942  137.6944  163.7278 C.3     1  UNL1        0.1340
      5 N         140.0975  138.5984  163.7528 N.ar    1  UNL1       -0.2884
      6 C         139.1296  138.8113  162.6268 C.ar    1  UNL1        0.1932
      7 N         138.0925  139.7928  163.0863 N.ar    1  UNL1       -0.1221
      8 N         138.4194  140.1865  164.4963 N.ar    1  UNL1       -0.1282
      9 C         139.6586  139.4484  164.9083 C.ar    1  UNL1        0.1670
     10 C         140.3393  139.5435  166.2416 C.ar    1  UNL1        0.0422
     11 C         141.8316  139.4214  166.3322 C.ar    1  UNL1        0.0219
     12 C         142.5123  139.5165  167.6655 C.ar    1  UNL1        0.0785
     13 N         141.7006  139.7338  168.9081 N.ar    1  UNL1       -0.2922
     14 C         142.3813  139.8289  170.2414 C.3     1  UNL1        0.1336
     15 C         140.2083  139.8559  168.8175 C.ar    1  UNL1        0.2611
     16 O         139.3968  140.0732  170.0601 O.2     1  UNL1       -0.2670
     17 C         139.5277  139.7608  167.4841 C.ar    1  UNL1        0.0638
     18 C         142.4070  139.3092  159.7108 C.3     1  UNL1        0.0731
     19 N         142.7874  140.0134  160.9794 N.3     1  UNL1       -0.2712
     20 C         144.1147  139.9255  161.6726 C.3     1  UNL1        0.0738
     21 C         144.0549  140.7870  162.8992 C.3     1  UNL1        0.0372
     22 C         144.8382  141.2651  164.0857 C.3     1  UNL1        0.0245
     23 C         143.9582  142.1808  164.8838 C.3     1  UNL1        0.0909
     24 N         142.6308  142.2687  164.1904 N.pl3   1  UNL1       -0.3077
     25 C         142.6907  141.4073  162.9639 C.3     1  UNL1        0.0901
     26 C         141.9073  140.9292  161.7774 C.3     1  UNL1        0.0921
     27 C         141.4510  143.0762  164.6440 C.ar    1  UNL1        0.0480
     28 C         140.8625  142.8455  166.0043 C.ar    1  UNL1        0.0168
     29 C         139.6826  143.6530  166.4579 C.ar    1  UNL1        0.0309
     30 C         139.0912  144.6913  165.5513 C.ar    1  UNL1        0.1402
     31 F         137.9113  145.4988  166.0049 F       1  UNL1       -0.2042
     32 C         139.6796  144.9221  164.1909 C.ar    1  UNL1        0.0309
     33 C         140.8595  144.1146  163.7373 C.ar    1  UNL1        0.0168
@<TRIPOS>BOND
     1     4     5    1
     2     5     6   ar
     3     6     3    1
     4     3     2    1
     5     2     1    1
     6     1    18    1
     7    18    19    1
     8    19    20    1
     9    20    21    1
    10    21    22    1
    11    22    23    1
    12    23    24    1
    13    24    27    1
    14    27    28   ar
    15    28    29   ar
    16    29    30   ar
    17    30    31    1
    18    30    32   ar
    19    32    33   ar
    20    24    25    1
    21    25    26    1
    22     6     7   ar
    23     7     8   ar
    24     8     9   ar
    25     9    10    1
    26    10    11   ar
    27    11    12   ar
    28    12    13   ar
    29    13    14    1
    30    13    15   ar
    31    15    16    2
    32    15    17   ar
    33     9     5   ar
    34    17    10   ar
    35    26    19    1
    36    25    21    1
    37    33    27   ar
@<TRIPOS>MOLECULE
*****
 33 37 0 0 0
SMALL
GASTEIGER

@<TRIPOS>ATOM
      1 C         141.3448  143.9865  158.4542 C.3     1  UNL1        0.0294
      2 C         142.1365  142.7710  158.8361 C.3     1  UNL1        0.0666
      3 S         143.3868  142.9161  159.6520 S.3     1  UNL1       -0.0756
      4 C         143.0513  140.4968  161.8162 C.3     1  UNL1        0.1340
      5 N         143.1424  141.9595  162.1360 N.ar    1  UNL1       -0.2884
      6 C         143.2966  143.0715  161.1412 C.ar    1  UNL1        0.1932
      7 N         143.3449  144.3663  161.8970 N.ar    1  UNL1       -0.1221
      8 N         143.2205  144.0545  163.3589 N.ar    1  UNL1       -0.1282
      9 C         143.0954  142.5670  163.5067 C.ar    1  UNL1        0.1670
     10 C         142.9489  141.8185  164.7983 C.ar    1  UNL1        0.0422
     11 C         142.6235  142.5589  166.0616 C.ar    1  UNL1        0.0219
     12 C         142.4770  141.8104  167.3532 C.ar    1  UNL1        0.0785
     13 N         142.6561  140.3213  167.3815 N.ar    1  UNL1       -0.2922
     14 C         142.5096  139.5728  168.6731 C.3     1  UNL1        0.1336
     15 C         142.9815  139.5809  166.1182 C.ar    1  UNL1        0.2611
     16 O         143.1605  138.0919  166.1466 O.2     1  UNL1       -0.2670
     17 C         143.1279  140.3295  164.8266 C.ar    1  UNL1        0.0638
     18 C         140.0047  144.2360  159.0801 C.3     1  UNL1        0.0731
     19 N         139.8375  144.1186  160.5661 N.3     1  UNL1       -0.2712
     20 C         139.8334  145.2548  161.5454 C.3     1  UNL1        0.0738
     21 C         139.6383  144.6828  162.9182 C.3     1  UNL1        0.0372
     22 C         139.5153  145.0315  164.3719 C.3     1  UNL1        0.0245
     23 C         139.3228  143.7573  165.1396 C.3     1  UNL1        0.0909
     24 N         139.3269  142.6210  164.1603 N.pl3   1  UNL1       -0.3077
     25 C         139.5219  143.1930  162.7875 C.3     1  UNL1        0.0901
     26 C         139.6450  142.8443  161.3337 C.3     1  UNL1        0.0921
     27 C         139.1644  141.1679  164.4951 C.ar    1  UNL1        0.0480
     28 C         139.3563  140.6974  165.9064 C.ar    1  UNL1        0.0168
     29 C         139.1939  139.2443  166.2412 C.ar    1  UNL1        0.0309
     30 C         138.8396  138.2617  165.1647 C.ar    1  UNL1        0.1402
     31 F         138.6772  136.8086  165.4995 F       1  UNL1       -0.2042
     32 C         138.6477  138.7321  163.7533 C.ar    1  UNL1        0.0309
     33 C         138.8101  140.1853  163.4185 C.ar    1  UNL1        0.0168
@<TRIPOS>BOND
     1     4     5    1
     2     5     6   ar
     3     6     3    1
     4     3     2    1
     5     2     1    1
     6     1    18    1
     7    18    19    1
     8    19    20    1
     9    20    21    1
    10    21    22    1
    11    22    23    1
    12    23    24    1
    13    24    27    1
    14    27    28   ar
    15    28    29   ar
    16    29    30   ar
    17    30    31    1
    18    30    32   ar
    19    32    33   ar
    20    24    25    1
    21    25    26    1
    22     6     7   ar
    23     7     8   ar
    24     8     9   ar
    25     9    10    1
    26    10    11   ar
    27    11    12   ar
    28    12    13   ar
    29    13    14    1
    30    13    15   ar
    31    15    16    2
    32    15    17   ar
    33     9     5   ar
    34    17    10   ar
    35    26    19    1
    36    25    21    1
    37    33    27   ar
@<TRIPOS>MOLECULE
*****
 33 37 0 0 0
SMALL
GASTEIGER

@<TRIPOS>ATOM
      1 C         138.2444  140.4088  159.5424 C.3     1  UNL1        0.0294
      2 C         137.2848  139.6507  160.4112 C.3     1  UNL1        0.0666
      3 S         137.7480  139.0777  161.7177 S.3     1  UNL1       -0.0756
      4 C         139.8979  138.5536  164.1162 C.3     1  UNL1        0.1340
      5 N         138.9932  139.7431  163.9875 N.ar    1  UNL1       -0.2884
      6 C         138.0050  139.9841  162.8850 C.ar    1  UNL1        0.1932
      7 N         137.3189  141.2904  163.1547 N.ar    1  UNL1       -0.1221
      8 N         137.8831  141.8569  164.4239 N.ar    1  UNL1       -0.1282
      9 C         138.9179  140.9007  164.9386 C.ar    1  UNL1        0.1670
     10 C         139.7340  141.0718  166.1855 C.ar    1  UNL1        0.0422
     11 C         140.8495  142.0740  166.2200 C.ar    1  UNL1        0.0219
     12 C         141.6657  142.2452  167.4668 C.ar    1  UNL1        0.0785
     13 N         141.3661  141.4141  168.6792 N.ar    1  UNL1       -0.2922
     14 C         142.1822  141.5853  169.9261 C.3     1  UNL1        0.1336
     15 C         140.2506  140.4120  168.6447 C.ar    1  UNL1        0.2611
     16 O         139.9512  139.5810  169.8570 O.2     1  UNL1       -0.2670
     17 C         139.4345  140.2408  167.3978 C.ar    1  UNL1        0.0638
     18 C         139.5109  139.7548  159.0755 C.3     1  UNL1        0.0731
     19 N         140.6858  139.6485  160.0019 N.3     1  UNL1       -0.2712
     20 C         141.5037  138.4160  160.2509 C.3     1  UNL1        0.0738
     21 C         142.5725  138.7619  161.2449 C.3     1  UNL1        0.0372
     22 C         143.7385  138.2139  162.0131 C.3     1  UNL1        0.0245
     23 C         144.3018  139.3216  162.8533 C.3     1  UNL1        0.0909
     24 N         143.4839  140.5541  162.6043 N.pl3   1  UNL1       -0.3077
     25 C         142.4151  140.2082  161.6103 C.3     1  UNL1        0.0901
     26 C         141.2491  140.7562  160.8421 C.3     1  UNL1        0.0921
     27 C         143.6974  141.8968  163.2381 C.ar    1  UNL1        0.0480
     28 C         143.4150  143.1472  162.4592 C.ar    1  UNL1        0.0168
     29 C         143.6284  144.4899  163.0930 C.ar    1  UNL1        0.0309
     30 C         144.1242  144.5821  164.5056 C.ar    1  UNL1        0.1402
     31 F         144.3377  145.9248  165.1394 F       1  UNL1       -0.2042
     32 C         144.4066  143.3317  165.2846 C.ar    1  UNL1        0.0309
     33 C         144.1932  141.9890  164.6508 C.ar    1  UNL1        0.0168
@<TRIPOS>BOND
     1     4     5    1
     2     5     6   ar
     3     6     3    1
     4     3     2    1
     5     2     1    1
     6     1    18    1
     7    18    19    1
     8    19    20    1
     9    20    21    1
    10    21    22    1
    11    22    23    1
    12    23    24    1
    13    24    27    1
    14    27    28   ar
    15    28    29   ar
    16    29    30   ar
    17    30    31    1
    18    30    32   ar
    19    32    33   ar
    20    24    25    1
    21    25    26    1
    22     6     7   ar
    23     7     8   ar
    24     8     9   ar
    25     9    10    1
    26    10    11   ar
    27    11    12   ar
    28    12    13   ar
    29    13    14    1
    30    13    15   ar
    31    15    16    2
    32    15    17   ar
    33     9     5   ar
    34    17    10   ar
    35    26    19    1
    36    25    21    1
    37    33    27   ar
