@<TRIPOS>MOLECULE
*****
 22 23 0 0 0
SMALL
GASTEIGER

@<TRIPOS>ATOM
      1 C         138.9983  140.4175  165.9453 C.2     1  UNL1        0.2254
      2 O         138.3901  141.1354  164.7771 O.2     1  UNL1       -0.2749
      3 N         139.8384  141.1706  166.9338 N.am    1  UNL1       -0.2756
      4 C         140.4466  140.4526  168.1020 C.3     1  UNL1        0.0927
      5 C         141.8115  139.8317  168.1418 C.3     1  UNL1        0.0383
      6 C         142.0052  139.2248  169.4999 C.3     1  UNL1        0.0704
      7 N         140.7599  139.4707  170.2993 N.3     1  UNL1       -0.2960
      8 C         139.7968  140.2296  169.4354 C.3     1  UNL1        0.0887
      9 H         140.9846  140.0178  171.1304 H       1  UNL1        0.1233
     10 C         137.6675  138.4650  167.0254 C.3     1  UNL1        0.0096
     11 C         138.7664  138.9465  166.1251 C.3     1  UNL1        0.0767
     12 C         139.6333  137.9570  165.4045 C.3     1  UNL1        0.0096
     13 C         140.0704  142.6416  166.7541 C.3     1  UNL1        0.1210
     14 C         141.0654  143.1258  165.7413 C.ar    1  UNL1        0.0091
     15 C         142.4709  142.6023  165.7611 C.ar    1  UNL1       -0.0009
     16 C         143.4659  143.0864  164.7484 C.ar    1  UNL1        0.0120
     17 C         143.0553  144.0941  163.7160 C.ar    1  UNL1        0.0690
     18 CL        144.0504  144.5783  162.7032 Cl      1  UNL1       -0.0813
     19 C         141.6498  144.6176  163.6962 C.ar    1  UNL1        0.0785
     20 CL        141.2393  145.6254  162.6637 Cl      1  UNL1       -0.0805
     21 C         140.6548  144.1335  164.7089 C.ar    1  UNL1        0.0667
     22 CL        139.2493  144.6570  164.6891 Cl      1  UNL1       -0.0816
@<TRIPOS>BOND
     1    10    11    1
     2    11    12    1
     3    11     1    1
     4     1     2    2
     5     1     3   am
     6     3    13    1
     7    13    14    1
     8    14    15   ar
     9    15    16   ar
    10    16    17   ar
    11    17    18    1
    12    17    19   ar
    13    19    20    1
    14    19    21   ar
    15    21    22    1
    16     4     3    1
    17     4     5    1
    18     5     6    1
    19     6     7    1
    20     7     8    1
    21    21    14   ar
    22     8     4    1
    23     7     9    1
@<TRIPOS>MOLECULE
*****
 22 23 0 0 0
SMALL
GASTEIGER

@<TRIPOS>ATOM
      1 C         140.6835  139.8709  169.0203 C.2     1  UNL1        0.2254
      2 O         139.5382  139.8241  169.9877 O.2     1  UNL1       -0.2749
      3 N         140.4187  139.8673  167.5438 N.am    1  UNL1       -0.2756
      4 C         141.5641  139.9140  166.5764 C.3     1  UNL1        0.0927
      5 C         142.2808  138.7287  166.0007 C.3     1  UNL1        0.0383
      6 C         143.3536  139.2364  165.0832 C.3     1  UNL1        0.0704
      7 N         143.2998  140.7355  165.0920 N.3     1  UNL1       -0.2960
      8 C         142.1938  141.1542  166.0148 C.3     1  UNL1        0.0887
      9 H         143.1142  141.0808  164.1504 H       1  UNL1        0.1233
     10 C         142.7981  141.2394  169.6572 C.3     1  UNL1        0.0096
     11 C         142.0936  139.9213  169.5293 C.3     1  UNL1        0.0767
     12 C         142.7992  138.6537  169.9103 C.3     1  UNL1        0.0096
     13 C         139.0086  139.8168  167.0349 C.3     1  UNL1        0.1210
     14 C         138.7288  140.0379  165.5778 C.ar    1  UNL1        0.0091
     15 C         138.5130  141.4283  165.0581 C.ar    1  UNL1       -0.0009
     16 C         138.2332  141.6494  163.6011 C.ar    1  UNL1        0.0120
     17 C         138.1692  140.4801  162.6639 C.ar    1  UNL1        0.0690
     18 CL        137.8894  140.7011  161.2068 Cl      1  UNL1       -0.0813
     19 C         138.3851  139.0896  163.1836 C.ar    1  UNL1        0.0785
     20 CL        138.3211  137.9202  162.2463 Cl      1  UNL1       -0.0805
     21 C         138.6649  138.8685  164.6406 C.ar    1  UNL1        0.0667
     22 CL        138.8807  137.4781  165.1603 Cl      1  UNL1       -0.0816
@<TRIPOS>BOND
     1    10    11    1
     2    11    12    1
     3    11     1    1
     4     1     2    2
     5     1     3   am
     6     3    13    1
     7    13    14    1
     8    14    15   ar
     9    15    16   ar
    10    16    17   ar
    11    17    18    1
    12    17    19   ar
    13    19    20    1
    14    19    21   ar
    15    21    22    1
    16     4     3    1
    17     4     5    1
    18     5     6    1
    19     6     7    1
    20     7     8    1
    21    21    14   ar
    22     8     4    1
    23     7     9    1
@<TRIPOS>MOLECULE
*****
 22 23 0 0 0
SMALL
GASTEIGER

@<TRIPOS>ATOM
      1 C         140.2534  140.0063  168.9470 C.2     1  UNL1        0.2254
      2 O         139.0407  139.8315  169.8124 O.2     1  UNL1       -0.2749
      3 N         140.1356  139.8823  167.4568 N.am    1  UNL1       -0.2756
      4 C         141.3483  140.0571  166.5915 C.3     1  UNL1        0.0927
      5 C         142.3352  138.9869  166.2302 C.3     1  UNL1        0.0383
      6 C         143.3840  139.6012  165.3509 C.3     1  UNL1        0.0704
      7 N         143.0451  141.0511  165.1689 N.3     1  UNL1       -0.2960
      8 C         141.7870  141.3328  165.9356 C.3     1  UNL1        0.0887
      9 H         142.8995  141.2510  164.1794 H       1  UNL1        0.1233
     10 C         142.0195  141.7275  169.7645 C.3     1  UNL1        0.0096
     11 C         141.5839  140.3051  169.5719 C.3     1  UNL1        0.0767
     12 C         142.4788  139.1816  170.0042 C.3     1  UNL1        0.0096
     13 C         138.8051  139.5835  166.8319 C.3     1  UNL1        0.1210
     14 C         138.7205  139.2473  165.3725 C.ar    1  UNL1        0.0091
     15 C         139.0048  137.8499  164.9071 C.ar    1  UNL1       -0.0009
     16 C         138.9202  137.5137  163.4477 C.ar    1  UNL1        0.0120
     17 C         138.5513  138.5748  162.4538 C.ar    1  UNL1        0.0690
     18 CL        138.4667  138.2386  160.9944 Cl      1  UNL1       -0.0813
     19 C         138.2670  139.9721  162.9192 C.ar    1  UNL1        0.0785
     20 CL        137.8981  141.0332  161.9252 Cl      1  UNL1       -0.0805
     21 C         138.3516  140.3084  164.3786 C.ar    1  UNL1        0.0667
     22 CL        138.0673  141.7057  164.8440 Cl      1  UNL1       -0.0816
@<TRIPOS>BOND
     1    10    11    1
     2    11    12    1
     3    11     1    1
     4     1     2    2
     5     1     3   am
     6     3    13    1
     7    13    14    1
     8    14    15   ar
     9    15    16   ar
    10    16    17   ar
    11    17    18    1
    12    17    19   ar
    13    19    20    1
    14    19    21   ar
    15    21    22    1
    16     4     3    1
    17     4     5    1
    18     5     6    1
    19     6     7    1
    20     7     8    1
    21    21    14   ar
    22     8     4    1
    23     7     9    1
@<TRIPOS>MOLECULE
*****
 22 23 0 0 0
SMALL
GASTEIGER

@<TRIPOS>ATOM
      1 C         142.0325  139.0816  166.0553 C.2     1  UNL1        0.2254
      2 O         141.1639  138.4940  164.9829 O.2     1  UNL1       -0.2749
      3 N         141.4381  139.9971  167.0842 N.am    1  UNL1       -0.2756
      4 C         142.3068  140.5847  168.1567 C.3     1  UNL1        0.0927
      5 C         142.9836  141.9225  168.1085 C.3     1  UNL1        0.0383
      6 C         143.7463  142.1023  169.3876 C.3     1  UNL1        0.0704
      7 N         143.5408  140.8757  170.2262 N.3     1  UNL1       -0.2960
      8 C         142.6512  139.9378  169.4654 C.3     1  UNL1        0.0887
      9 H         143.1000  141.1304  171.1100 H       1  UNL1        0.1233
     10 C         143.9915  137.6535  166.9896 C.3     1  UNL1        0.0096
     11 C         143.4957  138.7538  166.0988 C.3     1  UNL1        0.0767
     12 C         144.4629  139.5263  165.2517 C.3     1  UNL1        0.0096
     13 C         139.9750  140.3249  167.0407 C.3     1  UNL1        0.1210
     14 C         139.4682  141.3687  166.0900 C.ar    1  UNL1        0.0091
     15 C         139.9190  142.7925  166.2296 C.ar    1  UNL1       -0.0009
     16 C         139.4122  143.8362  165.2789 C.ar    1  UNL1        0.0120
     17 C         138.4547  143.4561  164.1887 C.ar    1  UNL1        0.0690
     18 CL        137.9479  144.4999  163.2380 Cl      1  UNL1       -0.0813
     19 C         138.0039  142.0323  164.0491 C.ar    1  UNL1        0.0785
     20 CL        137.0463  141.6522  162.9588 Cl      1  UNL1       -0.0805
     21 C         138.5107  140.9886  164.9998 C.ar    1  UNL1        0.0667
     22 CL        138.0599  139.5647  164.8602 Cl      1  UNL1       -0.0816
@<TRIPOS>BOND
     1    10    11    1
     2    11    12    1
     3    11     1    1
     4     1     2    2
     5     1     3   am
     6     3    13    1
     7    13    14    1
     8    14    15   ar
     9    15    16   ar
    10    16    17   ar
    11    17    18    1
    12    17    19   ar
    13    19    20    1
    14    19    21   ar
    15    21    22    1
    16     4     3    1
    17     4     5    1
    18     5     6    1
    19     6     7    1
    20     7     8    1
    21    21    14   ar
    22     8     4    1
    23     7     9    1
@<TRIPOS>MOLECULE
*****
 22 23 0 0 0
SMALL
GASTEIGER

@<TRIPOS>ATOM
      1 C         141.9728  139.9902  166.1054 C.2     1  UNL1        0.2254
      2 O         141.0301  140.1468  167.2615 O.2     1  UNL1       -0.2749
      3 N         142.4503  141.1999  165.3578 N.am    1  UNL1       -0.2756
      4 C         143.3931  141.0432  164.2017 C.3     1  UNL1        0.0927
      5 C         143.0045  140.7890  162.7754 C.3     1  UNL1        0.0383
      6 C         144.2612  140.7020  161.9610 C.3     1  UNL1        0.0704
      7 N         145.4265  140.9025  162.8841 N.3     1  UNL1       -0.2960
      8 C         144.8900  141.1134  164.2688 C.3     1  UNL1        0.0887
      9 H         145.9625  141.7198  162.5923 H       1  UNL1        0.1233
     10 C         141.6260  137.8128  164.7311 C.3     1  UNL1        0.0096
     11 C         142.4382  138.6240  165.6967 C.3     1  UNL1        0.0767
     12 C         143.7156  138.0690  166.2537 C.3     1  UNL1        0.0096
     13 C         141.9850  142.5660  165.7664 C.3     1  UNL1        0.1210
     14 C         141.3958  143.4941  164.7458 C.ar    1  UNL1        0.0091
     15 C         142.2691  144.4958  164.0501 C.ar    1  UNL1       -0.0009
     16 C         141.6800  145.4238  163.0296 C.ar    1  UNL1        0.0120
     17 C         140.2175  145.3501  162.7046 C.ar    1  UNL1        0.0690
     18 CL        139.6283  146.2782  161.6840 Cl      1  UNL1       -0.0813
     19 C         139.3442  144.3485  163.4003 C.ar    1  UNL1        0.0785
     20 CL        137.8816  144.2748  163.0753 Cl      1  UNL1       -0.0805
     21 C         139.9333  143.4204  164.4209 C.ar    1  UNL1        0.0667
     22 CL        139.0600  142.4188  165.1165 Cl      1  UNL1       -0.0816
@<TRIPOS>BOND
     1    10    11    1
     2    11    12    1
     3    11     1    1
     4     1     2    2
     5     1     3   am
     6     3    13    1
     7    13    14    1
     8    14    15   ar
     9    15    16   ar
    10    16    17   ar
    11    17    18    1
    12    17    19   ar
    13    19    20    1
    14    19    21   ar
    15    21    22    1
    16     4     3    1
    17     4     5    1
    18     5     6    1
    19     6     7    1
    20     7     8    1
    21    21    14   ar
    22     8     4    1
    23     7     9    1
@<TRIPOS>MOLECULE
*****
 22 23 0 0 0
SMALL
GASTEIGER

@<TRIPOS>ATOM
      1 C         138.9573  140.4989  165.7665 C.2     1  UNL1        0.2254
      2 O         138.0646  141.2501  164.8238 O.2     1  UNL1       -0.2749
      3 N         140.0723  141.2122  166.4722 N.am    1  UNL1       -0.2756
      4 C         140.9652  140.4610  167.4149 C.3     1  UNL1        0.0927
      5 C         140.7111  140.2314  168.8753 C.3     1  UNL1        0.0383
      6 C         141.8577  139.4360  169.4258 C.3     1  UNL1        0.0704
      7 N         142.8202  139.1740  168.3055 N.3     1  UNL1       -0.2960
      8 C         142.2686  139.8075  167.0627 C.3     1  UNL1        0.0887
      9 H         142.9230  138.1689  168.1653 H       1  UNL1        0.1233
     10 C         139.4650  138.0211  165.1726 C.3     1  UNL1        0.0096
     11 C         138.7351  139.0345  166.0035 C.3     1  UNL1        0.0767
     12 C         137.7831  138.5835  167.0712 C.3     1  UNL1        0.0096
     13 C         140.2946  142.6765  166.2353 C.3     1  UNL1        0.1210
     14 C         140.6795  143.1656  164.8704 C.ar    1  UNL1        0.0091
     15 C         141.8038  142.5070  164.1273 C.ar    1  UNL1       -0.0009
     16 C         142.1888  142.9960  162.7625 C.ar    1  UNL1        0.0120
     17 C         141.4494  144.1435  162.1408 C.ar    1  UNL1        0.0690
     18 CL        141.8343  144.6325  160.7760 Cl      1  UNL1       -0.0813
     19 C         140.3250  144.8020  162.8840 C.ar    1  UNL1        0.0785
     20 CL        139.5856  145.9496  162.2622 Cl      1  UNL1       -0.0805
     21 C         139.9401  144.3131  164.2487 C.ar    1  UNL1        0.0667
     22 CL        138.8158  144.9716  164.9919 Cl      1  UNL1       -0.0816
@<TRIPOS>BOND
     1    10    11    1
     2    11    12    1
     3    11     1    1
     4     1     2    2
     5     1     3   am
     6     3    13    1
     7    13    14    1
     8    14    15   ar
     9    15    16   ar
    10    16    17   ar
    11    17    18    1
    12    17    19   ar
    13    19    20    1
    14    19    21   ar
    15    21    22    1
    16     4     3    1
    17     4     5    1
    18     5     6    1
    19     6     7    1
    20     7     8    1
    21    21    14   ar
    22     8     4    1
    23     7     9    1
@<TRIPOS>MOLECULE
*****
 22 23 0 0 0
SMALL
GASTEIGER

@<TRIPOS>ATOM
      1 C         141.7136  140.3950  168.4556 C.2     1  UNL1        0.2254
      2 O         142.9682  140.0897  169.2190 O.2     1  UNL1       -0.2749
      3 N         141.4953  139.7920  167.0996 N.am    1  UNL1       -0.2756
      4 C         140.2407  140.0974  166.3362 C.3     1  UNL1        0.0927
      5 C         140.0282  141.2665  165.4207 C.3     1  UNL1        0.0383
      6 C         138.6345  141.1789  164.8729 C.3     1  UNL1        0.0704
      7 N         137.9857  139.9557  165.4498 N.3     1  UNL1       -0.2960
      8 C         138.9784  139.2873  166.3542 C.3     1  UNL1        0.0887
      9 H         137.7180  139.3192  164.6991 H       1  UNL1        0.1233
     10 C         140.7847  142.7875  168.8594 C.3     1  UNL1        0.0096
     11 C         140.6773  141.3034  169.0482 C.3     1  UNL1        0.0767
     12 C         139.5337  140.7275  169.8295 C.3     1  UNL1        0.0096
     13 C         142.5315  138.8837  166.5070 C.3     1  UNL1        0.1210
     14 C         142.9560  139.0608  165.0793 C.ar    1  UNL1        0.0091
     15 C         144.0115  140.0679  164.7301 C.ar    1  UNL1       -0.0009
     16 C         144.4360  140.2451  163.3024 C.ar    1  UNL1        0.0120
     17 C         143.8051  139.4152  162.2239 C.ar    1  UNL1        0.0690
     18 CL        144.2296  139.5924  160.7961 Cl      1  UNL1       -0.0813
     19 C         142.7497  138.4082  162.5731 C.ar    1  UNL1        0.0785
     20 CL        142.1188  137.5783  161.4945 Cl      1  UNL1       -0.0805
     21 C         142.3251  138.2310  164.0007 C.ar    1  UNL1        0.0667
     22 CL        141.2697  137.2239  164.3499 Cl      1  UNL1       -0.0816
@<TRIPOS>BOND
     1    10    11    1
     2    11    12    1
     3    11     1    1
     4     1     2    2
     5     1     3   am
     6     3    13    1
     7    13    14    1
     8    14    15   ar
     9    15    16   ar
    10    16    17   ar
    11    17    18    1
    12    17    19   ar
    13    19    20    1
    14    19    21   ar
    15    21    22    1
    16     4     3    1
    17     4     5    1
    18     5     6    1
    19     6     7    1
    20     7     8    1
    21    21    14   ar
    22     8     4    1
    23     7     9    1
@<TRIPOS>MOLECULE
*****
 22 23 0 0 0
SMALL
GASTEIGER

@<TRIPOS>ATOM
      1 C         143.3543  140.5317  164.1082 C.2     1  UNL1        0.2254
      2 O         143.0508  139.1935  164.7140 O.2     1  UNL1       -0.2749
      3 N         142.4518  141.6990  164.3778 N.am    1  UNL1       -0.2756
      4 C         142.7553  143.0373  163.7719 C.3     1  UNL1        0.0927
      5 C         143.6145  144.1060  164.3801 C.3     1  UNL1        0.0383
      6 C         143.6431  145.2710  163.4356 C.3     1  UNL1        0.0704
      7 N         142.8017  144.9222  162.2437 N.3     1  UNL1       -0.2960
      8 C         142.2530  143.5418  162.4516 C.3     1  UNL1        0.0887
      9 H         143.3725  144.9442  161.3987 H       1  UNL1        0.1233
     10 C         145.8411  141.2240  163.8138 C.3     1  UNL1        0.0096
     11 C         144.5603  140.7025  163.2327 C.3     1  UNL1        0.0767
     12 C         144.4855  140.3519  161.7762 C.3     1  UNL1        0.0096
     13 C         141.2458  141.5282  165.2532 C.3     1  UNL1        0.1210
     14 C         141.3912  141.5651  166.7458 C.ar    1  UNL1        0.0091
     15 C         142.5731  142.2481  167.3676 C.ar    1  UNL1       -0.0009
     16 C         142.7184  142.2849  168.8600 C.ar    1  UNL1        0.0120
     17 C         141.6819  141.6388  169.7307 C.ar    1  UNL1        0.0690
     18 CL        141.8272  141.6756  171.2232 Cl      1  UNL1       -0.0813
     19 C         140.5000  140.9558  169.1089 C.ar    1  UNL1        0.0785
     20 CL        139.4634  140.3096  169.9796 Cl      1  UNL1       -0.0805
     21 C         140.3546  140.9189  167.6164 C.ar    1  UNL1        0.0667
     22 CL        139.1727  140.2360  166.9946 Cl      1  UNL1       -0.0816
@<TRIPOS>BOND
     1    10    11    1
     2    11    12    1
     3    11     1    1
     4     1     2    2
     5     1     3   am
     6     3    13    1
     7    13    14    1
     8    14    15   ar
     9    15    16   ar
    10    16    17   ar
    11    17    18    1
    12    17    19   ar
    13    19    20    1
    14    19    21   ar
    15    21    22    1
    16     4     3    1
    17     4     5    1
    18     5     6    1
    19     6     7    1
    20     7     8    1
    21    21    14   ar
    22     8     4    1
    23     7     9    1
@<TRIPOS>MOLECULE
*****
 22 23 0 0 0
SMALL
GASTEIGER

@<TRIPOS>ATOM
      1 C         140.2939  139.9679  165.6446 C.2     1  UNL1        0.2254
      2 O         141.4202  140.0803  166.6288 O.2     1  UNL1       -0.2749
      3 N         140.1279  141.0044  164.5731 N.am    1  UNL1       -0.2756
      4 C         139.0015  140.8919  163.5889 C.3     1  UNL1        0.0927
      5 C         139.0274  140.1184  162.3040 C.3     1  UNL1        0.0383
      6 C         137.6934  140.2816  161.6377 C.3     1  UNL1        0.0704
      7 N         136.8430  141.1560  162.5109 N.3     1  UNL1       -0.2960
      8 C         137.6515  141.5332  163.7168 C.3     1  UNL1        0.0887
      9 H         136.0069  140.6483  162.7998 H       1  UNL1        0.1233
     10 C         138.1103  138.9277  166.5934 C.3     1  UNL1        0.0096
     11 C         139.3334  138.8190  165.7319 C.3     1  UNL1        0.0767
     12 C         139.5961  137.5614  164.9577 C.3     1  UNL1        0.0096
     13 C         141.0882  142.1533  164.4858 C.3     1  UNL1        0.1210
     14 C         141.1566  142.9804  163.2362 C.ar    1  UNL1        0.0091
     15 C         141.9765  142.5119  162.0707 C.ar    1  UNL1       -0.0009
     16 C         142.0449  143.3389  160.8212 C.ar    1  UNL1        0.0120
     17 C         141.2935  144.6343  160.7371 C.ar    1  UNL1        0.0690
     18 CL        141.3619  145.4614  159.4875 Cl      1  UNL1       -0.0813
     19 C         140.4736  145.1028  161.9026 C.ar    1  UNL1        0.0785
     20 CL        139.7222  146.3983  161.8185 Cl      1  UNL1       -0.0805
     21 C         140.4052  144.2758  163.1521 C.ar    1  UNL1        0.0667
     22 CL        139.5853  144.7443  164.3176 Cl      1  UNL1       -0.0816
@<TRIPOS>BOND
     1    10    11    1
     2    11    12    1
     3    11     1    1
     4     1     2    2
     5     1     3   am
     6     3    13    1
     7    13    14    1
     8    14    15   ar
     9    15    16   ar
    10    16    17   ar
    11    17    18    1
    12    17    19   ar
    13    19    20    1
    14    19    21   ar
    15    21    22    1
    16     4     3    1
    17     4     5    1
    18     5     6    1
    19     6     7    1
    20     7     8    1
    21    21    14   ar
    22     8     4    1
    23     7     9    1
