@<TRIPOS>MOLECULE
*****
 41 46 0 0 0
SMALL
GASTEIGER

@<TRIPOS>ATOM
      1 C         144.2780  139.7632  163.3873 C.3     1  UNL1        0.0570
      2 C         143.4272  139.2080  162.2838 C.3     1  UNL1        0.0331
      3 C         142.1608  138.4733  162.6103 C.3     1  UNL1        0.0735
      4 N         141.7453  138.2939  164.0404 N.3     1  UNL1       -0.2710
      5 C         142.5962  138.8491  165.1439 C.3     1  UNL1        0.0735
      6 C         143.8625  139.5837  164.8174 C.3     1  UNL1        0.0331
      7 N         145.5444  140.4978  163.0607 N.3     1  UNL1       -0.2934
      8 H         146.2995  140.0129  163.5456 H       1  UNL1        0.1236
      9 C         145.6761  141.9530  163.4000 C.3     1  UNL1        0.1152
     10 O         140.3525  145.3605  158.8395 O.2     1  UNL1       -0.2707
     11 C         140.9514  145.1421  160.1973 C.2     1  UNL1        0.2718
     12 C         140.3748  145.8410  161.3927 C.3     1  UNL1        0.2898
     13 O         140.9737  145.6225  162.7505 O.3     1  UNL1       -0.4628
     14 C         142.1493  144.7051  162.9129 C.ar    1  UNL1        0.1708
     15 C         142.7482  144.4867  164.2706 C.ar    1  UNL1        0.0411
     16 C         143.9238  143.5693  164.4330 C.ar    1  UNL1        0.0193
     17 C         144.5005  142.8704  163.2376 C.ar    1  UNL1        0.0765
     18 N         143.9016  143.0888  161.8798 N.ar    1  UNL1       -0.2304
     19 C         142.7260  144.0062  161.7175 C.ar    1  UNL1        0.1682
     20 N         142.1270  144.2247  160.3597 N.am    1  UNL1       -0.2639
     21 H         142.5055  143.7660  159.5751 H       1  UNL1        0.1565
     22 C         140.4789  137.5593  164.3669 C.3     1  UNL1        0.0970
     23 C         139.2449  138.3235  164.7452 C.3     1  UNL1        0.1264
     24 N         138.7894  139.4774  163.9019 N.ar    1  UNL1       -0.2926
     25 C         138.1298  139.2250  162.5786 C.ar    1  UNL1        0.2611
     26 O         137.9257  137.8185  162.0985 O.2     1  UNL1       -0.2670
     27 C         137.6743  140.3788  161.7354 C.ar    1  UNL1        0.0623
     28 C         137.8783  141.7852  162.2155 C.ar    1  UNL1        0.0255
     29 C         138.5379  142.0377  163.5388 C.ar    1  UNL1        0.0975
     30 N         138.7420  143.4440  164.0189 N.ar    1  UNL1       -0.2392
     31 C         139.4016  143.6965  165.3422 C.ar    1  UNL1        0.1363
     32 C         139.8571  142.5426  166.1855 C.ar    1  UNL1        0.1659
     33 C         139.6530  141.1362  165.7054 C.ar    1  UNL1        0.0579
     34 C         138.9934  140.8837  164.3820 C.ar    1  UNL1        0.0832
     35 O         140.5167  142.7951  167.5088 O.3     1  UNL1       -0.4503
     36 C         141.0261  141.6440  168.3246 C.ar    1  UNL1        0.1644
     37 C         140.1415  141.0042  169.3532 C.ar    1  UNL1        0.0407
     38 C         140.6508  139.8531  170.1691 C.ar    1  UNL1        0.0238
     39 C         142.0449  139.3418  169.9562 C.ar    1  UNL1        0.0991
     40 N         142.9295  139.9816  168.9276 N.ar    1  UNL1       -0.2391
     41 C         142.4201  141.1327  168.1118 C.ar    1  UNL1        0.1362
@<TRIPOS>BOND
     1    10    11    2
     2    11    12    1
     3    12    13    1
     4    13    14    1
     5    14    15   ar
     6    15    16   ar
     7    16    17   ar
     8    17     9    1
     9     9     7    1
    10     7     1    1
    11     1     2    1
    12     2     3    1
    13     3     4    1
    14     4    22    1
    15    22    23    1
    16    23    24    1
    17    24    25   ar
    18    25    26    2
    19    25    27   ar
    20    27    28   ar
    21    28    29   ar
    22    29    30   ar
    23    30    31   ar
    24    31    32   ar
    25    32    35    1
    26    35    36    1
    27    36    37   ar
    28    37    38   ar
    29    38    39   ar
    30    39    40   ar
    31    40    41   ar
    32    32    33   ar
    33    33    34   ar
    34     4     5    1
    35     5     6    1
    36    17    18   ar
    37    18    19   ar
    38    19    20    1
    39    20    11   am
    40    19    14   ar
    41     6     1    1
    42    34    24   ar
    43    34    29   ar
    44    41    36   ar
    45     7     8    1
    46    20    21    1
@<TRIPOS>MOLECULE
*****
 41 46 0 0 0
SMALL
GASTEIGER

@<TRIPOS>ATOM
      1 C         142.2954  144.4935  163.3445 C.3     1  UNL1        0.0570
      2 C         142.1607  143.6969  164.6083 C.3     1  UNL1        0.0331
      3 C         142.9303  142.4203  164.7759 C.3     1  UNL1        0.0735
      4 N         143.8346  141.9403  163.6797 N.3     1  UNL1       -0.2710
      5 C         143.9694  142.7369  162.4158 C.3     1  UNL1        0.0735
      6 C         143.1998  144.0135  162.2482 C.3     1  UNL1        0.0331
      7 N         141.5258  145.7700  163.1769 N.3     1  UNL1       -0.2934
      8 H         141.3195  146.1147  164.1145 H       1  UNL1        0.1236
      9 C         140.2305  145.7711  162.4203 C.3     1  UNL1        0.1152
     10 O         138.7185  139.3320  158.2970 O.2     1  UNL1       -0.2707
     11 C         138.4578  140.2005  159.4919 C.2     1  UNL1        0.2718
     12 C         137.4323  139.7912  160.5072 C.3     1  UNL1        0.2898
     13 O         137.1715  140.6598  161.7020 O.3     1  UNL1       -0.4628
     14 C         137.9363  141.9376  161.8816 C.ar    1  UNL1        0.1708
     15 C         137.6755  142.8061  163.0764 C.ar    1  UNL1        0.0411
     16 C         138.4402  144.0839  163.2560 C.ar    1  UNL1        0.0193
     17 C         139.4658  144.4933  162.2407 C.ar    1  UNL1        0.0765
     18 N         139.7266  143.6248  161.0459 N.ar    1  UNL1       -0.2304
     19 C         138.9618  142.3469  160.8663 C.ar    1  UNL1        0.1682
     20 N         139.2225  141.4784  159.6715 N.am    1  UNL1       -0.2639
     21 H         139.8956  141.7470  159.0051 H       1  UNL1        0.1565
     22 C         144.6042  140.6638  163.8473 C.3     1  UNL1        0.0970
     23 C         143.9009  139.4176  164.2971 C.3     1  UNL1        0.1264
     24 N         142.6773  138.9431  163.5705 N.ar    1  UNL1       -0.2926
     25 C         142.7900  138.4373  162.1629 C.ar    1  UNL1        0.2611
     26 O         144.1262  138.4059  161.4818 O.2     1  UNL1       -0.2670
     27 C         141.5665  137.9628  161.4363 C.ar    1  UNL1        0.0623
     28 C         140.2304  137.9941  162.1173 C.ar    1  UNL1        0.0255
     29 C         140.1177  138.5000  163.5249 C.ar    1  UNL1        0.0975
     30 N         138.7816  138.5314  164.2060 N.ar    1  UNL1       -0.2392
     31 C         138.6690  139.0372  165.6136 C.ar    1  UNL1        0.1363
     32 C         139.8925  139.5117  166.3402 C.ar    1  UNL1        0.1659
     33 C         141.2286  139.4804  165.6591 C.ar    1  UNL1        0.0579
     34 C         141.3413  138.9745  164.2515 C.ar    1  UNL1        0.0832
     35 O         139.7798  140.0176  167.7478 O.3     1  UNL1       -0.4503
     36 C         140.9898  140.5604  168.4488 C.ar    1  UNL1        0.1644
     37 C         141.3388  142.0140  168.3257 C.ar    1  UNL1        0.0407
     38 C         142.5489  142.5568  169.0267 C.ar    1  UNL1        0.0238
     39 C         143.4098  141.6459  169.8507 C.ar    1  UNL1        0.0991
     40 N         143.0608  140.1922  169.9737 N.ar    1  UNL1       -0.2391
     41 C         141.8508  139.6495  169.2728 C.ar    1  UNL1        0.1362
@<TRIPOS>BOND
     1    10    11    2
     2    11    12    1
     3    12    13    1
     4    13    14    1
     5    14    15   ar
     6    15    16   ar
     7    16    17   ar
     8    17     9    1
     9     9     7    1
    10     7     1    1
    11     1     2    1
    12     2     3    1
    13     3     4    1
    14     4    22    1
    15    22    23    1
    16    23    24    1
    17    24    25   ar
    18    25    26    2
    19    25    27   ar
    20    27    28   ar
    21    28    29   ar
    22    29    30   ar
    23    30    31   ar
    24    31    32   ar
    25    32    35    1
    26    35    36    1
    27    36    37   ar
    28    37    38   ar
    29    38    39   ar
    30    39    40   ar
    31    40    41   ar
    32    32    33   ar
    33    33    34   ar
    34     4     5    1
    35     5     6    1
    36    17    18   ar
    37    18    19   ar
    38    19    20    1
    39    20    11   am
    40    19    14   ar
    41     6     1    1
    42    34    24   ar
    43    34    29   ar
    44    41    36   ar
    45     7     8    1
    46    20    21    1
@<TRIPOS>MOLECULE
*****
 41 46 0 0 0
SMALL
GASTEIGER

@<TRIPOS>ATOM
      1 C         141.6219  144.3299  163.5150 C.3     1  UNL1        0.0570
      2 C         140.5660  144.0050  162.5005 C.3     1  UNL1        0.0331
      3 C         139.3972  143.1461  162.8831 C.3     1  UNL1        0.0735
      4 N         139.2844  142.6122  164.2803 N.3     1  UNL1       -0.2710
      5 C         140.3404  142.9372  165.2949 C.3     1  UNL1        0.0735
      6 C         141.5091  143.7960  164.9123 C.3     1  UNL1        0.0331
      7 N         142.7907  145.1887  163.1324 N.3     1  UNL1       -0.2934
      8 H         142.4955  145.7480  162.3321 H       1  UNL1        0.1236
      9 C         144.0974  144.5540  162.7588 C.3     1  UNL1        0.1152
     10 O         143.0591  137.9555  158.7423 O.2     1  UNL1       -0.2707
     11 C         143.5135  138.6620  159.9850 C.2     1  UNL1        0.2718
     12 C         144.0760  137.8755  161.1317 C.3     1  UNL1        0.2898
     13 O         144.5304  138.5820  162.3745 O.3     1  UNL1       -0.4628
     14 C         144.4222  140.0750  162.4706 C.ar    1  UNL1        0.1708
     15 C         144.8765  140.7815  163.7133 C.ar    1  UNL1        0.0411
     16 C         144.7683  142.2744  163.8094 C.ar    1  UNL1        0.0193
     17 C         144.2057  143.0610  162.6627 C.ar    1  UNL1        0.0765
     18 N         143.7513  142.3545  161.4199 N.ar    1  UNL1       -0.2304
     19 C         143.8596  140.8615  161.3239 C.ar    1  UNL1        0.1682
     20 N         143.4052  140.1550  160.0811 N.am    1  UNL1       -0.2639
     21 H         143.0360  140.6712  159.3285 H       1  UNL1        0.1565
     22 C         138.1157  141.7534  164.6630 C.3     1  UNL1        0.0970
     23 C         138.3457  140.3989  165.2649 C.3     1  UNL1        0.1264
     24 N         139.3107  139.4467  164.6228 N.ar    1  UNL1       -0.2926
     25 C         138.9581  138.7835  163.3244 C.ar    1  UNL1        0.2611
     26 O         137.6406  139.0724  162.6681 O.2     1  UNL1       -0.2670
     27 C         139.9230  137.8314  162.6823 C.ar    1  UNL1        0.0623
     28 C         141.2406  137.5424  163.3386 C.ar    1  UNL1        0.0255
     29 C         141.5931  138.2057  164.6370 C.ar    1  UNL1        0.0975
     30 N         142.9106  137.9168  165.2932 N.ar    1  UNL1       -0.2392
     31 C         143.2632  138.5800  166.5917 C.ar    1  UNL1        0.1363
     32 C         142.2983  139.5321  167.2338 C.ar    1  UNL1        0.1659
     33 C         140.9807  139.8210  166.5775 C.ar    1  UNL1        0.0579
     34 C         140.6281  139.1578  165.2791 C.ar    1  UNL1        0.0832
     35 O         142.6508  140.1953  168.5322 O.3     1  UNL1       -0.4503
     36 C         141.6601  141.0970  169.2071 C.ar    1  UNL1        0.1644
     37 C         141.6348  142.5609  168.8810 C.ar    1  UNL1        0.0407
     38 C         140.6441  143.4626  169.5559 C.ar    1  UNL1        0.0238
     39 C         139.6786  142.9004  170.5568 C.ar    1  UNL1        0.0991
     40 N         139.7039  141.4364  170.8828 N.ar    1  UNL1       -0.2391
     41 C         140.6946  140.5348  170.2080 C.ar    1  UNL1        0.1362
@<TRIPOS>BOND
     1    10    11    2
     2    11    12    1
     3    12    13    1
     4    13    14    1
     5    14    15   ar
     6    15    16   ar
     7    16    17   ar
     8    17     9    1
     9     9     7    1
    10     7     1    1
    11     1     2    1
    12     2     3    1
    13     3     4    1
    14     4    22    1
    15    22    23    1
    16    23    24    1
    17    24    25   ar
    18    25    26    2
    19    25    27   ar
    20    27    28   ar
    21    28    29   ar
    22    29    30   ar
    23    30    31   ar
    24    31    32   ar
    25    32    35    1
    26    35    36    1
    27    36    37   ar
    28    37    38   ar
    29    38    39   ar
    30    39    40   ar
    31    40    41   ar
    32    32    33   ar
    33    33    34   ar
    34     4     5    1
    35     5     6    1
    36    17    18   ar
    37    18    19   ar
    38    19    20    1
    39    20    11   am
    40    19    14   ar
    41     6     1    1
    42    34    24   ar
    43    34    29   ar
    44    41    36   ar
    45     7     8    1
    46    20    21    1
@<TRIPOS>MOLECULE
*****
 41 46 0 0 0
SMALL
GASTEIGER

@<TRIPOS>ATOM
      1 C         137.9331  139.9186  162.5878 C.3     1  UNL1        0.0570
      2 C         138.1310  140.0369  164.0700 C.3     1  UNL1        0.0331
      3 C         138.1227  141.3877  164.7223 C.3     1  UNL1        0.0735
      4 N         137.9164  142.6201  163.8925 N.3     1  UNL1       -0.2710
      5 C         137.7185  142.5017  162.4102 C.3     1  UNL1        0.0735
      6 C         137.7269  141.1510  161.7580 C.3     1  UNL1        0.0331
      7 N         137.9415  138.5680  161.9355 N.3     1  UNL1       -0.2934
      8 H         137.7162  137.8886  162.6623 H       1  UNL1        0.1236
      9 C         139.1809  138.0738  161.2500 C.3     1  UNL1        0.1152
     10 O         143.9862  137.9997  167.3862 O.2     1  UNL1       -0.2707
     11 C         143.7325  138.2993  165.9385 C.2     1  UNL1        0.2718
     12 C         144.8267  138.8738  165.0885 C.3     1  UNL1        0.2898
     13 O         144.5729  139.1735  163.6408 O.3     1  UNL1       -0.4628
     14 C         143.2249  138.8986  163.0431 C.ar    1  UNL1        0.1708
     15 C         142.9711  139.1982  161.5954 C.ar    1  UNL1        0.0411
     16 C         141.6232  138.9233  160.9977 C.ar    1  UNL1        0.0193
     17 C         140.5288  138.3487  161.8477 C.ar    1  UNL1        0.0765
     18 N         140.7826  138.0490  163.2954 N.ar    1  UNL1       -0.2304
     19 C         142.1307  138.3240  163.8931 C.ar    1  UNL1        0.1682
     20 N         142.3845  138.0244  165.3408 N.am    1  UNL1       -0.2639
     21 H         141.6663  137.6473  165.8987 H       1  UNL1        0.1565
     22 C         137.9080  143.9708  164.5447 C.3     1  UNL1        0.0970
     23 C         139.1819  144.7535  164.6648 C.3     1  UNL1        0.1264
     24 N         140.2831  144.5518  163.6664 N.ar    1  UNL1       -0.2926
     25 C         140.1513  145.1120  162.2811 C.ar    1  UNL1        0.2611
     26 O         138.9184  145.8738  161.8943 O.2     1  UNL1       -0.2670
     27 C         141.2524  144.9103  161.2827 C.ar    1  UNL1        0.0623
     28 C         142.4853  144.1485  161.6695 C.ar    1  UNL1        0.0255
     29 C         142.6171  143.5883  163.0547 C.ar    1  UNL1        0.0975
     30 N         143.8500  142.8265  163.4415 N.ar    1  UNL1       -0.2392
     31 C         143.9817  142.2664  164.8268 C.ar    1  UNL1        0.1363
     32 C         142.8807  142.4680  165.8252 C.ar    1  UNL1        0.1659
     33 C         141.6477  143.2299  165.4384 C.ar    1  UNL1        0.0579
     34 C         141.5159  143.7900  164.0532 C.ar    1  UNL1        0.0832
     35 O         143.0124  141.9079  167.2104 O.3     1  UNL1       -0.4503
     36 C         141.7847  141.5536  167.9961 C.ar    1  UNL1        0.1644
     37 C         140.9364  140.3894  167.5775 C.ar    1  UNL1        0.0407
     38 C         139.7087  140.0351  168.3631 C.ar    1  UNL1        0.0238
     39 C         139.3293  140.8450  169.5674 C.ar    1  UNL1        0.0991
     40 N         140.1776  142.0092  169.9859 N.ar    1  UNL1       -0.2391
     41 C         141.4052  142.3635  169.2003 C.ar    1  UNL1        0.1362
@<TRIPOS>BOND
     1    10    11    2
     2    11    12    1
     3    12    13    1
     4    13    14    1
     5    14    15   ar
     6    15    16   ar
     7    16    17   ar
     8    17     9    1
     9     9     7    1
    10     7     1    1
    11     1     2    1
    12     2     3    1
    13     3     4    1
    14     4    22    1
    15    22    23    1
    16    23    24    1
    17    24    25   ar
    18    25    26    2
    19    25    27   ar
    20    27    28   ar
    21    28    29   ar
    22    29    30   ar
    23    30    31   ar
    24    31    32   ar
    25    32    35    1
    26    35    36    1
    27    36    37   ar
    28    37    38   ar
    29    38    39   ar
    30    39    40   ar
    31    40    41   ar
    32    32    33   ar
    33    33    34   ar
    34     4     5    1
    35     5     6    1
    36    17    18   ar
    37    18    19   ar
    38    19    20    1
    39    20    11   am
    40    19    14   ar
    41     6     1    1
    42    34    24   ar
    43    34    29   ar
    44    41    36   ar
    45     7     8    1
    46    20    21    1
@<TRIPOS>MOLECULE
*****
 41 46 0 0 0
SMALL
GASTEIGER

@<TRIPOS>ATOM
      1 C         140.1286  145.0035  162.4766 C.3     1  UNL1        0.0570
      2 C         140.7907  144.5841  161.1977 C.3     1  UNL1        0.0331
      3 C         142.2478  144.2277  161.1893 C.3     1  UNL1        0.0735
      4 N         143.0426  144.2905  162.4598 N.3     1  UNL1       -0.2710
      5 C         142.3804  144.7099  163.7388 C.3     1  UNL1        0.0735
      6 C         140.9234  145.0664  163.7472 C.3     1  UNL1        0.0331
      7 N         138.6716  145.3600  162.4850 N.3     1  UNL1       -0.2934
      8 H         138.5723  146.1788  163.0851 H       1  UNL1        0.1236
      9 C         137.6568  144.3574  162.9489 C.3     1  UNL1        0.1152
     10 O         138.8155  137.1371  165.6462 O.2     1  UNL1       -0.2707
     11 C         138.6488  138.0819  164.4931 C.2     1  UNL1        0.2718
     12 C         138.7018  137.5648  163.0861 C.3     1  UNL1        0.2898
     13 O         138.5351  138.5097  161.9331 O.3     1  UNL1       -0.4628
     14 C         138.3155  139.9716  162.1870 C.ar    1  UNL1        0.1708
     15 C         138.1489  140.9164  161.0339 C.ar    1  UNL1        0.0411
     16 C         137.9293  142.3783  161.2879 C.ar    1  UNL1        0.0193
     17 C         137.8764  142.8955  162.6950 C.ar    1  UNL1        0.0765
     18 N         138.0430  141.9507  163.8480 N.ar    1  UNL1       -0.2304
     19 C         138.2626  140.4887  163.5940 C.ar    1  UNL1        0.1682
     20 N         138.4293  139.5439  164.7471 N.am    1  UNL1       -0.2639
     21 H         138.3945  139.8833  165.6706 H       1  UNL1        0.1565
     22 C         144.4996  143.9341  162.4514 C.3     1  UNL1        0.0970
     23 C         144.9338  142.5447  162.8133 C.3     1  UNL1        0.1264
     24 N         143.9307  141.4299  162.8458 N.ar    1  UNL1       -0.2926
     25 C         143.5962  140.6850  161.5875 C.ar    1  UNL1        0.2611
     26 O         144.2648  141.0550  160.2967 O.2     1  UNL1       -0.2670
     27 C         142.5931  139.5703  161.6200 C.ar    1  UNL1        0.0623
     28 C         141.9244  139.2003  162.9108 C.ar    1  UNL1        0.0255
     29 C         142.2589  139.9452  164.1691 C.ar    1  UNL1        0.0975
     30 N         141.5903  139.5753  165.4599 N.ar    1  UNL1       -0.2392
     31 C         141.9248  140.3202  166.7182 C.ar    1  UNL1        0.1363
     32 C         142.9279  141.4349  166.6857 C.ar    1  UNL1        0.1659
     33 C         143.5966  141.8049  165.3949 C.ar    1  UNL1        0.0579
     34 C         143.2621  141.0600  164.1366 C.ar    1  UNL1        0.0832
     35 O         143.2624  142.1798  167.9440 O.3     1  UNL1       -0.4503
     36 C         142.2964  142.1853  169.0916 C.ar    1  UNL1        0.1644
     37 C         141.0403  143.0010  169.0106 C.ar    1  UNL1        0.0407
     38 C         140.0742  143.0066  170.1582 C.ar    1  UNL1        0.0238
     39 C         140.3645  142.1963  171.3867 C.ar    1  UNL1        0.0991
     40 N         141.6207  141.3805  171.4677 N.ar    1  UNL1       -0.2391
     41 C         142.5866  141.3750  170.3201 C.ar    1  UNL1        0.1362
@<TRIPOS>BOND
     1    10    11    2
     2    11    12    1
     3    12    13    1
     4    13    14    1
     5    14    15   ar
     6    15    16   ar
     7    16    17   ar
     8    17     9    1
     9     9     7    1
    10     7     1    1
    11     1     2    1
    12     2     3    1
    13     3     4    1
    14     4    22    1
    15    22    23    1
    16    23    24    1
    17    24    25   ar
    18    25    26    2
    19    25    27   ar
    20    27    28   ar
    21    28    29   ar
    22    29    30   ar
    23    30    31   ar
    24    31    32   ar
    25    32    35    1
    26    35    36    1
    27    36    37   ar
    28    37    38   ar
    29    38    39   ar
    30    39    40   ar
    31    40    41   ar
    32    32    33   ar
    33    33    34   ar
    34     4     5    1
    35     5     6    1
    36    17    18   ar
    37    18    19   ar
    38    19    20    1
    39    20    11   am
    40    19    14   ar
    41     6     1    1
    42    34    24   ar
    43    34    29   ar
    44    41    36   ar
    45     7     8    1
    46    20    21    1
@<TRIPOS>MOLECULE
*****
 41 46 0 0 0
SMALL
GASTEIGER

@<TRIPOS>ATOM
      1 C         143.0205  143.4654  164.3626 C.3     1  UNL1        0.0570
      2 C         142.4863  144.1803  163.1571 C.3     1  UNL1        0.0331
      3 C         141.0091  144.3918  163.0039 C.3     1  UNL1        0.0735
      4 N         140.0663  143.8882  164.0562 N.3     1  UNL1       -0.2710
      5 C         140.6006  143.1732  165.2618 C.3     1  UNL1        0.0735
      6 C         142.0776  142.9618  165.4150 C.3     1  UNL1        0.0331
      7 N         144.4976  143.2540  164.5158 N.3     1  UNL1       -0.2934
      8 H         144.9517  143.8171  163.7968 H       1  UNL1        0.1236
      9 C         145.0724  141.8724  164.4111 C.3     1  UNL1        0.1152
     10 O         143.3914  138.8702  157.4175 O.2     1  UNL1       -0.2707
     11 C         143.2636  138.8338  158.9116 C.2     1  UNL1        0.2718
     12 C         142.4476  137.7602  159.5686 C.3     1  UNL1        0.2898
     13 O         142.3198  137.7238  161.0627 O.3     1  UNL1       -0.4628
     14 C         143.0079  138.7609  161.8998 C.ar    1  UNL1        0.1708
     15 C         142.8801  138.7245  163.3939 C.ar    1  UNL1        0.0411
     16 C         143.5682  139.7616  164.2310 C.ar    1  UNL1        0.0193
     17 C         144.3842  140.8353  163.5740 C.ar    1  UNL1        0.0765
     18 N         144.5120  140.8717  162.0799 N.ar    1  UNL1       -0.2304
     19 C         143.8239  139.8345  161.2428 C.ar    1  UNL1        0.1682
     20 N         143.9517  139.8709  159.7487 N.am    1  UNL1       -0.2639
     21 H         144.4872  140.5755  159.3175 H       1  UNL1        0.1565
     22 C         138.5892  144.0996  163.9030 C.3     1  UNL1        0.0970
     23 C         137.6544  142.9277  163.9561 C.3     1  UNL1        0.1264
     24 N         137.9773  141.6757  163.1956 N.ar    1  UNL1       -0.2926
     25 C         138.0223  141.6993  161.6965 C.ar    1  UNL1        0.2611
     26 O         137.7443  142.9749  160.9578 O.2     1  UNL1       -0.2670
     27 C         138.3452  140.4473  160.9360 C.ar    1  UNL1        0.0623
     28 C         138.6232  139.1717  161.6747 C.ar    1  UNL1        0.0255
     29 C         138.5782  139.1481  163.1739 C.ar    1  UNL1        0.0975
     30 N         138.8561  137.8726  163.9126 N.ar    1  UNL1       -0.2392
     31 C         138.8112  137.8490  165.4117 C.ar    1  UNL1        0.1363
     32 C         138.4883  139.1009  166.1721 C.ar    1  UNL1        0.1659
     33 C         138.2103  140.3766  165.4334 C.ar    1  UNL1        0.0579
     34 C         138.2553  140.4001  163.9343 C.ar    1  UNL1        0.0832
     35 O         138.4433  139.0773  167.6713 O.3     1  UNL1       -0.4503
     36 C         139.3890  139.9306  168.4635 C.ar    1  UNL1        0.1644
     37 C         140.7245  140.3013  167.8900 C.ar    1  UNL1        0.0407
     38 C         141.6703  141.1546  168.6822 C.ar    1  UNL1        0.0238
     39 C         141.2804  141.6372  170.0480 C.ar    1  UNL1        0.0991
     40 N         139.9448  141.2664  170.6214 N.ar    1  UNL1       -0.2391
     41 C         138.9992  140.4132  169.8292 C.ar    1  UNL1        0.1362
@<TRIPOS>BOND
     1    10    11    2
     2    11    12    1
     3    12    13    1
     4    13    14    1
     5    14    15   ar
     6    15    16   ar
     7    16    17   ar
     8    17     9    1
     9     9     7    1
    10     7     1    1
    11     1     2    1
    12     2     3    1
    13     3     4    1
    14     4    22    1
    15    22    23    1
    16    23    24    1
    17    24    25   ar
    18    25    26    2
    19    25    27   ar
    20    27    28   ar
    21    28    29   ar
    22    29    30   ar
    23    30    31   ar
    24    31    32   ar
    25    32    35    1
    26    35    36    1
    27    36    37   ar
    28    37    38   ar
    29    38    39   ar
    30    39    40   ar
    31    40    41   ar
    32    32    33   ar
    33    33    34   ar
    34     4     5    1
    35     5     6    1
    36    17    18   ar
    37    18    19   ar
    38    19    20    1
    39    20    11   am
    40    19    14   ar
    41     6     1    1
    42    34    24   ar
    43    34    29   ar
    44    41    36   ar
    45     7     8    1
    46    20    21    1
@<TRIPOS>MOLECULE
*****
 41 46 0 0 0
SMALL
GASTEIGER

@<TRIPOS>ATOM
      1 C         137.9445  142.9443  163.1021 C.3     1  UNL1        0.0570
      2 C         137.8883  141.7549  162.1898 C.3     1  UNL1        0.0331
      3 C         138.1680  140.3830  162.7280 C.3     1  UNL1        0.0735
      4 N         138.5038  140.2004  164.1785 N.3     1  UNL1       -0.2710
      5 C         138.5600  141.3899  165.0908 C.3     1  UNL1        0.0735
      6 C         138.2803  142.7617  164.5526 C.3     1  UNL1        0.0331
      7 N         137.6648  144.3161  162.5639 N.3     1  UNL1       -0.2934
      8 H         137.2965  144.1929  161.6207 H       1  UNL1        0.1236
      9 C         138.7713  145.3244  162.4685 C.3     1  UNL1        0.1152
     10 O         144.1979  141.3990  158.4818 O.2     1  UNL1       -0.2707
     11 C         143.8090  142.2500  159.6542 C.2     1  UNL1        0.2718
     12 C         144.8401  142.6437  160.6700 C.3     1  UNL1        0.2898
     13 O         144.4511  143.4948  161.8424 O.3     1  UNL1       -0.4628
     14 C         143.0312  143.9522  161.9989 C.ar    1  UNL1        0.1708
     15 C         142.6423  144.8033  163.1713 C.ar    1  UNL1        0.0411
     16 C         141.2224  145.2607  163.3278 C.ar    1  UNL1        0.0193
     17 C         140.1913  144.8670  162.3119 C.ar    1  UNL1        0.0765
     18 N         140.5802  144.0159  161.1396 N.ar    1  UNL1       -0.2304
     19 C         142.0002  143.5585  160.9831 C.ar    1  UNL1        0.1682
     20 N         142.3891  142.7074  159.8107 N.am    1  UNL1       -0.2639
     21 H         141.7124  142.4491  159.1440 H       1  UNL1        0.1565
     22 C         138.7835  138.8286  164.7167 C.3     1  UNL1        0.0970
     23 C         140.1668  138.4693  165.1722 C.3     1  UNL1        0.1264
     24 N         141.3485  138.7886  164.3053 N.ar    1  UNL1       -0.2926
     25 C         141.6143  137.9782  163.0714 C.ar    1  UNL1        0.2611
     26 O         140.6982  136.8484  162.7044 O.2     1  UNL1       -0.2670
     27 C         142.7960  138.2974  162.2044 C.ar    1  UNL1        0.0623
     28 C         143.7120  139.4272  162.5714 C.ar    1  UNL1        0.0255
     29 C         143.4463  140.2377  163.8053 C.ar    1  UNL1        0.0975
     30 N         144.3622  141.3674  164.1723 N.ar    1  UNL1       -0.2392
     31 C         144.0965  142.1778  165.4062 C.ar    1  UNL1        0.1363
     32 C         142.9148  141.8586  166.2731 C.ar    1  UNL1        0.1659
     33 C         141.9988  140.7288  165.9062 C.ar    1  UNL1        0.0579
     34 C         142.2645  139.9183  164.6723 C.ar    1  UNL1        0.0832
     35 O         142.6491  142.6690  167.5070 O.3     1  UNL1       -0.4503
     36 C         141.9731  142.0376  168.6879 C.ar    1  UNL1        0.1644
     37 C         140.5119  142.2737  168.9305 C.ar    1  UNL1        0.0407
     38 C         139.8359  141.6423  170.1114 C.ar    1  UNL1        0.0238
     39 C         140.6214  140.7747  171.0497 C.ar    1  UNL1        0.0991
     40 N         142.0827  140.5386  170.8071 N.ar    1  UNL1       -0.2391
     41 C         142.7586  141.1700  169.6263 C.ar    1  UNL1        0.1362
@<TRIPOS>BOND
     1    10    11    2
     2    11    12    1
     3    12    13    1
     4    13    14    1
     5    14    15   ar
     6    15    16   ar
     7    16    17   ar
     8    17     9    1
     9     9     7    1
    10     7     1    1
    11     1     2    1
    12     2     3    1
    13     3     4    1
    14     4    22    1
    15    22    23    1
    16    23    24    1
    17    24    25   ar
    18    25    26    2
    19    25    27   ar
    20    27    28   ar
    21    28    29   ar
    22    29    30   ar
    23    30    31   ar
    24    31    32   ar
    25    32    35    1
    26    35    36    1
    27    36    37   ar
    28    37    38   ar
    29    38    39   ar
    30    39    40   ar
    31    40    41   ar
    32    32    33   ar
    33    33    34   ar
    34     4     5    1
    35     5     6    1
    36    17    18   ar
    37    18    19   ar
    38    19    20    1
    39    20    11   am
    40    19    14   ar
    41     6     1    1
    42    34    24   ar
    43    34    29   ar
    44    41    36   ar
    45     7     8    1
    46    20    21    1
@<TRIPOS>MOLECULE
*****
 41 46 0 0 0
SMALL
GASTEIGER

@<TRIPOS>ATOM
      1 C         142.0599  137.7965  162.5783 C.3     1  UNL1        0.0570
      2 C         140.6414  137.7180  162.0973 C.3     1  UNL1        0.0331
      3 C         139.5111  137.7776  163.0817 C.3     1  UNL1        0.0735
      4 N         139.7996  137.9157  164.5473 N.3     1  UNL1       -0.2710
      5 C         141.2182  137.9942  165.0283 C.3     1  UNL1        0.0735
      6 C         142.3484  137.9346  164.0438 C.3     1  UNL1        0.0331
      7 N         143.1901  137.7369  161.5939 N.3     1  UNL1       -0.2934
      8 H         144.0408  137.5720  162.1318 H       1  UNL1        0.1236
      9 C         143.4653  138.9068  160.6962 C.3     1  UNL1        0.1152
     10 O         145.2123  144.2869  166.0584 O.2     1  UNL1       -0.2707
     11 C         144.4993  143.8913  164.7993 C.2     1  UNL1        0.2718
     12 C         143.6557  144.8935  164.0686 C.3     1  UNL1        0.2898
     13 O         142.9428  144.4979  162.8096 O.3     1  UNL1       -0.4628
     14 C         143.0734  143.1002  162.2812 C.ar    1  UNL1        0.1708
     15 C         142.3604  142.7046  161.0222 C.ar    1  UNL1        0.0411
     16 C         142.4911  141.3068  160.4938 C.ar    1  UNL1        0.0193
     17 C         143.3347  140.3046  161.2246 C.ar    1  UNL1        0.0765
     18 N         144.0476  140.7002  162.4836 N.ar    1  UNL1       -0.2304
     19 C         143.9170  142.0980  163.0119 C.ar    1  UNL1        0.1682
     20 N         144.6299  142.4936  164.2710 N.am    1  UNL1       -0.2639
     21 H         145.1836  141.8358  164.7506 H       1  UNL1        0.1565
     22 C         138.6694  137.9752  165.5317 C.3     1  UNL1        0.0970
     23 C         138.0502  139.2953  165.8836 C.3     1  UNL1        0.1264
     24 N         138.9231  140.4835  166.1596 N.ar    1  UNL1       -0.2926
     25 C         139.6507  140.5921  167.4669 C.ar    1  UNL1        0.2611
     26 O         139.5052  139.5124  168.4981 O.2     1  UNL1       -0.2670
     27 C         140.5236  141.7802  167.7430 C.ar    1  UNL1        0.0623
     28 C         140.6691  142.8599  166.7118 C.ar    1  UNL1        0.0255
     29 C         139.9416  142.7513  165.4046 C.ar    1  UNL1        0.0975
     30 N         140.0870  143.8309  164.3734 N.ar    1  UNL1       -0.2392
     31 C         139.3595  143.7223  163.0661 C.ar    1  UNL1        0.1363
     32 C         138.4865  142.5342  162.7900 C.ar    1  UNL1        0.1659
     33 C         138.3411  141.4545  163.8212 C.ar    1  UNL1        0.0579
     34 C         139.0686  141.5631  165.1285 C.ar    1  UNL1        0.0832
     35 O         137.7590  142.4256  161.4828 O.3     1  UNL1       -0.4503
     36 C         138.4448  141.8276  160.2902 C.ar    1  UNL1        0.1644
     37 C         138.6372  140.3427  160.2021 C.ar    1  UNL1        0.0407
     38 C         139.3230  139.7447  159.0095 C.ar    1  UNL1        0.0238
     39 C         139.8164  140.6317  157.9051 C.ar    1  UNL1        0.0991
     40 N         139.6240  142.1168  157.9933 N.ar    1  UNL1       -0.2391
     41 C         138.9382  142.7147  159.1858 C.ar    1  UNL1        0.1362
@<TRIPOS>BOND
     1    10    11    2
     2    11    12    1
     3    12    13    1
     4    13    14    1
     5    14    15   ar
     6    15    16   ar
     7    16    17   ar
     8    17     9    1
     9     9     7    1
    10     7     1    1
    11     1     2    1
    12     2     3    1
    13     3     4    1
    14     4    22    1
    15    22    23    1
    16    23    24    1
    17    24    25   ar
    18    25    26    2
    19    25    27   ar
    20    27    28   ar
    21    28    29   ar
    22    29    30   ar
    23    30    31   ar
    24    31    32   ar
    25    32    35    1
    26    35    36    1
    27    36    37   ar
    28    37    38   ar
    29    38    39   ar
    30    39    40   ar
    31    40    41   ar
    32    32    33   ar
    33    33    34   ar
    34     4     5    1
    35     5     6    1
    36    17    18   ar
    37    18    19   ar
    38    19    20    1
    39    20    11   am
    40    19    14   ar
    41     6     1    1
    42    34    24   ar
    43    34    29   ar
    44    41    36   ar
    45     7     8    1
    46    20    21    1
@<TRIPOS>MOLECULE
*****
 41 46 0 0 0
SMALL
GASTEIGER

@<TRIPOS>ATOM
      1 C         139.9192  143.8523  164.4335 C.3     1  UNL1        0.0570
      2 C         140.2806  143.1365  165.7012 C.3     1  UNL1        0.0331
      3 C         139.6545  141.8108  166.0186 C.3     1  UNL1        0.0735
      4 N         138.6671  141.2010  165.0683 N.3     1  UNL1       -0.2710
      5 C         138.3057  141.9168  163.8006 C.3     1  UNL1        0.0735
      6 C         138.9318  143.2424  163.4832 C.3     1  UNL1        0.0331
      7 N         140.5452  145.1779  164.1161 N.3     1  UNL1       -0.2934
      8 H         140.0123  145.5779  163.3439 H       1  UNL1        0.1236
      9 C         141.9921  145.2501  163.7269 C.3     1  UNL1        0.1152
     10 O         143.2982  143.0993  156.3500 O.2     1  UNL1       -0.2707
     11 C         143.4236  142.8363  157.8215 C.2     1  UNL1        0.2718
     12 C         144.1099  141.5934  158.3054 C.3     1  UNL1        0.2898
     13 O         144.2354  141.3304  159.7768 O.3     1  UNL1       -0.4628
     14 C         143.6746  142.3103  160.7643 C.ar    1  UNL1        0.1708
     15 C         143.8000  142.0473  162.2357 C.ar    1  UNL1        0.0411
     16 C         143.2393  143.0272  163.2233 C.ar    1  UNL1        0.0193
     17 C         142.5529  144.2702  162.7394 C.ar    1  UNL1        0.0765
     18 N         142.4275  144.5332  161.2680 N.ar    1  UNL1       -0.2304
     19 C         142.9883  143.5532  160.2804 C.ar    1  UNL1        0.1682
     20 N         142.8628  143.8162  158.8090 N.am    1  UNL1       -0.2639
     21 H         142.4124  144.6319  158.4914 H       1  UNL1        0.1565
     22 C         138.0410  139.8754  165.3857 C.3     1  UNL1        0.0970
     23 C         138.6996  138.6068  164.9307 C.3     1  UNL1        0.1264
     24 N         139.8073  138.6574  163.9205 N.ar    1  UNL1       -0.2926
     25 C         139.4889  138.6112  162.4554 C.ar    1  UNL1        0.2611
     26 O         138.0628  138.5144  162.0005 O.2     1  UNL1       -0.2670
     27 C         140.5966  138.6617  161.4453 C.ar    1  UNL1        0.0623
     28 C         142.0227  138.7584  161.9002 C.ar    1  UNL1        0.0255
     29 C         142.3411  138.8046  163.3653 C.ar    1  UNL1        0.0975
     30 N         143.7672  138.9014  163.8202 N.ar    1  UNL1       -0.2392
     31 C         144.0855  138.9476  165.2853 C.ar    1  UNL1        0.1363
     32 C         142.9779  138.8970  166.2954 C.ar    1  UNL1        0.1659
     33 C         141.5517  138.8003  165.8405 C.ar    1  UNL1        0.0579
     34 C         141.2334  138.7541  164.3754 C.ar    1  UNL1        0.0832
     35 O         143.2963  138.9432  167.7605 O.3     1  UNL1       -0.4503
     36 C         142.6500  139.9755  168.6363 C.ar    1  UNL1        0.1644
     37 C         142.8225  141.4336  168.3296 C.ar    1  UNL1        0.0407
     38 C         142.1762  142.4658  169.2053 C.ar    1  UNL1        0.0238
     39 C         141.3575  142.0399  170.3878 C.ar    1  UNL1        0.0991
     40 N         141.1850  140.5817  170.6945 N.ar    1  UNL1       -0.2391
     41 C         141.8312  139.5495  169.8188 C.ar    1  UNL1        0.1362
@<TRIPOS>BOND
     1    10    11    2
     2    11    12    1
     3    12    13    1
     4    13    14    1
     5    14    15   ar
     6    15    16   ar
     7    16    17   ar
     8    17     9    1
     9     9     7    1
    10     7     1    1
    11     1     2    1
    12     2     3    1
    13     3     4    1
    14     4    22    1
    15    22    23    1
    16    23    24    1
    17    24    25   ar
    18    25    26    2
    19    25    27   ar
    20    27    28   ar
    21    28    29   ar
    22    29    30   ar
    23    30    31   ar
    24    31    32   ar
    25    32    35    1
    26    35    36    1
    27    36    37   ar
    28    37    38   ar
    29    38    39   ar
    30    39    40   ar
    31    40    41   ar
    32    32    33   ar
    33    33    34   ar
    34     4     5    1
    35     5     6    1
    36    17    18   ar
    37    18    19   ar
    38    19    20    1
    39    20    11   am
    40    19    14   ar
    41     6     1    1
    42    34    24   ar
    43    34    29   ar
    44    41    36   ar
    45     7     8    1
    46    20    21    1
