@<TRIPOS>MOLECULE
*****
 30 33 0 0 0
SMALL
GASTEIGER

@<TRIPOS>ATOM
      1 C         141.2687  144.6887  162.9515 C.3     1  UNL1        0.2355
      2 O         141.5561  143.8542  161.7387 O.3     1  UNL1       -0.3290
      3 C         142.8904  143.1859  161.5872 C.3     1  UNL1        0.1629
      4 C         143.9373  143.3520  162.6486 C.3     1  UNL1        0.1144
      5 C         143.6498  144.1865  163.8614 C.3     1  UNL1        0.1629
      6 O         142.3155  144.8549  164.0128 O.3     1  UNL1       -0.3290
      7 N         145.2715  142.6836  162.4971 N.3     1  UNL1       -0.2908
      8 H         145.9795  143.3937  162.6842 H       1  UNL1        0.1237
      9 C         145.6156  141.4951  163.3450 C.3     1  UNL1        0.0957
     10 C         144.5696  140.4649  163.6522 C.ar    1  UNL1       -0.0063
     11 C         144.1660  139.4702  162.6045 C.ar    1  UNL1       -0.0021
     12 C         143.1199  138.4400  162.9117 C.ar    1  UNL1        0.0111
     13 C         142.4774  138.4044  164.2667 C.ar    1  UNL1        0.0577
     14 CL        141.4313  137.3742  164.5739 Cl      1  UNL1       -0.0822
     15 C         142.8810  139.3991  165.3144 C.ar    1  UNL1        0.0111
     16 C         143.9270  140.4293  165.0072 C.ar    1  UNL1       -0.0021
     17 C         139.9344  145.3571  163.1030 C.3     1  UNL1        0.0660
     18 C         138.9319  144.8177  164.0799 C.3     1  UNL1        0.0316
     19 C         140.4902  142.1551  167.3559 C.ar    1  UNL1        0.1388
     20 C         140.1556  140.6929  167.3568 C.ar    1  UNL1        0.0384
     21 C         139.3016  140.1183  166.2657 C.ar    1  UNL1        0.0222
     22 C         138.7822  141.0058  165.1738 C.ar    1  UNL1        0.0812
     23 N         137.9282  140.4311  164.0827 N.ar    1  UNL1       -0.2439
     24 C         137.4087  141.3186  162.9907 C.ar    1  UNL1        0.0985
     25 C         137.7433  142.7808  162.9897 C.ar    1  UNL1        0.0164
     26 C         138.5973  143.3555  164.0808 C.ar    1  UNL1       -0.0189
     27 C         139.1168  142.4679  165.1728 C.ar    1  UNL1        0.0168
     28 C         139.9708  143.0426  166.2639 C.ar    1  UNL1        0.0381
     29 C         140.7075  143.4614  169.5911 C.3     1  UNL1        0.2525
     30 O         141.3443  142.7298  168.4469 O.3     1  UNL1       -0.4714
@<TRIPOS>BOND
     1    29    30    1
     2    30    19    1
     3    19    20   ar
     4    20    21   ar
     5    21    22   ar
     6    22    23   ar
     7    23    24   ar
     8    24    25   ar
     9    25    26   ar
    10    26    18    1
    11    18    17    1
    12     1    17    1
    13     1     2    1
    14     2     3    1
    15     3     4    1
    16     4     7    1
    17     7     9    1
    18     9    10    1
    19    10    11   ar
    20    11    12   ar
    21    12    13   ar
    22    13    14    1
    23    13    15   ar
    24    15    16   ar
    25     4     5    1
    26     5     6    1
    27    26    27   ar
    28    27    28   ar
    29    28    19   ar
    30    27    22   ar
    31     6     1    1
    32    16    10   ar
    33     7     8    1
@<TRIPOS>MOLECULE
*****
 30 33 0 0 0
SMALL
GASTEIGER

@<TRIPOS>ATOM
      1 C         138.2055  139.9214  162.1221 C.3     1  UNL1        0.2355
      2 O         139.1830  140.6268  161.2294 O.3     1  UNL1       -0.3290
      3 C         139.2863  142.1228  161.2645 C.3     1  UNL1        0.1629
      4 C         138.4121  142.9135  162.1923 C.3     1  UNL1        0.1144
      5 C         137.4347  142.2080  163.0851 C.3     1  UNL1        0.1629
      6 O         137.3314  140.7119  163.0499 O.3     1  UNL1       -0.3290
      7 N         138.5154  144.4095  162.2274 N.3     1  UNL1       -0.2908
      8 H         137.5623  144.7713  162.1951 H       1  UNL1        0.1237
      9 C         139.1971  145.0874  163.3788 C.3     1  UNL1        0.0957
     10 C         140.5548  144.6289  163.8220 C.ar    1  UNL1       -0.0063
     11 C         140.6834  143.4797  164.7775 C.ar    1  UNL1       -0.0021
     12 C         142.0411  143.0212  165.2207 C.ar    1  UNL1        0.0111
     13 C         143.2702  143.7118  164.7085 C.ar    1  UNL1        0.0577
     14 CL        144.6279  143.2533  165.1517 Cl      1  UNL1       -0.0822
     15 C         143.1416  144.8610  163.7530 C.ar    1  UNL1        0.0111
     16 C         141.7839  145.3195  163.3098 C.ar    1  UNL1       -0.0021
     17 C         138.1022  138.4254  162.0870 C.3     1  UNL1        0.0660
     18 C         138.7455  137.6037  163.1646 C.3     1  UNL1        0.0316
     19 C         143.1596  138.4784  163.1442 C.ar    1  UNL1        0.1388
     20 C         143.7958  139.1532  164.3230 C.ar    1  UNL1        0.0384
     21 C         142.9608  139.5365  165.5087 C.ar    1  UNL1        0.0222
     22 C         141.4894  139.2450  165.5155 C.ar    1  UNL1        0.0812
     23 N         140.6544  139.6282  166.7011 N.ar    1  UNL1       -0.2439
     24 C         139.1830  139.3367  166.7080 C.ar    1  UNL1        0.0985
     25 C         138.5467  138.6618  165.5291 C.ar    1  UNL1        0.0164
     26 C         139.3817  138.2785  164.3434 C.ar    1  UNL1       -0.0189
     27 C         140.8532  138.5701  164.3367 C.ar    1  UNL1        0.0168
     28 C         141.6882  138.1868  163.1510 C.ar    1  UNL1        0.0381
     29 C         144.0556  138.9965  160.7612 C.3     1  UNL1        0.2525
     30 O         143.9946  138.0951  161.9585 O.3     1  UNL1       -0.4714
@<TRIPOS>BOND
     1    29    30    1
     2    30    19    1
     3    19    20   ar
     4    20    21   ar
     5    21    22   ar
     6    22    23   ar
     7    23    24   ar
     8    24    25   ar
     9    25    26   ar
    10    26    18    1
    11    18    17    1
    12     1    17    1
    13     1     2    1
    14     2     3    1
    15     3     4    1
    16     4     7    1
    17     7     9    1
    18     9    10    1
    19    10    11   ar
    20    11    12   ar
    21    12    13   ar
    22    13    14    1
    23    13    15   ar
    24    15    16   ar
    25     4     5    1
    26     5     6    1
    27    26    27   ar
    28    27    28   ar
    29    28    19   ar
    30    27    22   ar
    31     6     1    1
    32    16    10   ar
    33     7     8    1
@<TRIPOS>MOLECULE
*****
 30 33 0 0 0
SMALL
GASTEIGER

@<TRIPOS>ATOM
      1 C         137.8589  142.6397  163.6628 C.3     1  UNL1        0.2355
      2 O         137.9133  141.5642  164.7070 O.3     1  UNL1       -0.3290
      3 C         138.0569  140.1282  164.2979 C.3     1  UNL1        0.1629
      4 C         138.1460  139.7677  162.8446 C.3     1  UNL1        0.1144
      5 C         138.0916  140.8432  161.8004 C.3     1  UNL1        0.1629
      6 O         137.9480  142.2792  162.2096 O.3     1  UNL1       -0.3290
      7 N         138.2896  138.3318  162.4355 N.3     1  UNL1       -0.2908
      8 H         138.5886  138.3319  161.4603 H       1  UNL1        0.1237
      9 C         139.2324  137.4313  163.1773 C.3     1  UNL1        0.0957
     10 C         140.6308  137.8877  163.4707 C.ar    1  UNL1       -0.0063
     11 C         141.0962  138.0135  164.8911 C.ar    1  UNL1       -0.0021
     12 C         142.4947  138.4699  165.1844 C.ar    1  UNL1        0.0111
     13 C         143.4277  138.8006  164.0574 C.ar    1  UNL1        0.0577
     14 CL        144.8261  139.2570  164.3508 Cl      1  UNL1       -0.0822
     15 C         142.9622  138.6748  162.6370 C.ar    1  UNL1        0.0111
     16 C         141.5639  138.2183  162.3436 C.ar    1  UNL1       -0.0021
     17 C         137.7153  144.0756  164.0719 C.3     1  UNL1        0.0660
     18 C         138.8399  144.7693  164.7820 C.3     1  UNL1        0.0316
     19 C         141.2421  141.9445  167.3315 C.ar    1  UNL1        0.1388
     20 C         142.6638  141.6319  166.9694 C.ar    1  UNL1        0.0384
     21 C         143.2847  142.2610  165.7575 C.ar    1  UNL1        0.0222
     22 C         142.4840  143.2026  164.9077 C.ar    1  UNL1        0.0812
     23 N         143.1050  143.8316  163.6958 N.ar    1  UNL1       -0.2439
     24 C         142.3043  144.7732  162.8460 C.ar    1  UNL1        0.0985
     25 C         140.8826  145.0858  163.2080 C.ar    1  UNL1        0.0164
     26 C         140.2616  144.4567  164.4199 C.ar    1  UNL1       -0.0189
     27 C         141.0624  143.5151  165.2698 C.ar    1  UNL1        0.0168
     28 C         140.4414  142.8860  166.4816 C.ar    1  UNL1        0.0381
     29 C         139.6749  140.1620  168.3881 C.3     1  UNL1        0.2525
     30 O         140.6211  141.3154  168.5434 O.3     1  UNL1       -0.4714
@<TRIPOS>BOND
     1    29    30    1
     2    30    19    1
     3    19    20   ar
     4    20    21   ar
     5    21    22   ar
     6    22    23   ar
     7    23    24   ar
     8    24    25   ar
     9    25    26   ar
    10    26    18    1
    11    18    17    1
    12     1    17    1
    13     1     2    1
    14     2     3    1
    15     3     4    1
    16     4     7    1
    17     7     9    1
    18     9    10    1
    19    10    11   ar
    20    11    12   ar
    21    12    13   ar
    22    13    14    1
    23    13    15   ar
    24    15    16   ar
    25     4     5    1
    26     5     6    1
    27    26    27   ar
    28    27    28   ar
    29    28    19   ar
    30    27    22   ar
    31     6     1    1
    32    16    10   ar
    33     7     8    1
@<TRIPOS>MOLECULE
*****
 30 33 0 0 0
SMALL
GASTEIGER

@<TRIPOS>ATOM
      1 C         138.1212  139.9681  162.1388 C.3     1  UNL1        0.2355
      2 O         138.8722  140.7530  161.1044 O.3     1  UNL1       -0.3290
      3 C         138.9316  142.2490  161.1951 C.3     1  UNL1        0.1629
      4 C         138.2401  142.9603  162.3202 C.3     1  UNL1        0.1144
      5 C         137.4891  142.1754  163.3546 C.3     1  UNL1        0.1629
      6 O         137.4297  140.6793  163.2639 O.3     1  UNL1       -0.3290
      7 N         138.2995  144.4563  162.4109 N.3     1  UNL1       -0.2908
      8 H         137.3356  144.7873  162.4533 H       1  UNL1        0.1237
      9 C         139.0323  145.1105  163.5445 C.3     1  UNL1        0.0957
     10 C         140.4146  144.6545  163.9066 C.ar    1  UNL1       -0.0063
     11 C         140.6018  143.5105  164.8585 C.ar    1  UNL1       -0.0021
     12 C         141.9842  143.0545  165.2205 C.ar    1  UNL1        0.0111
     13 C         143.1794  143.7425  164.6306 C.ar    1  UNL1        0.0577
     14 CL        144.5619  143.2865  164.9926 Cl      1  UNL1       -0.0822
     15 C         142.9923  144.8865  163.6786 C.ar    1  UNL1        0.0111
     16 C         141.6099  145.3425  163.3166 C.ar    1  UNL1       -0.0021
     17 C         138.0617  138.4721  162.0481 C.3     1  UNL1        0.0660
     18 C         138.8764  137.6309  162.9856 C.3     1  UNL1        0.0316
     19 C         140.1098  139.5291  166.8748 C.ar    1  UNL1        0.1388
     20 C         141.5510  139.8632  167.1223 C.ar    1  UNL1        0.0384
     21 C         142.5810  139.5647  166.0736 C.ar    1  UNL1        0.0222
     22 C         142.1699  138.9319  164.7772 C.ar    1  UNL1        0.0812
     23 N         143.1999  138.6334  163.7285 N.ar    1  UNL1       -0.2439
     24 C         142.7888  138.0006  162.4321 C.ar    1  UNL1        0.0985
     25 C         141.3476  137.6665  162.1845 C.ar    1  UNL1        0.0164
     26 C         140.3175  137.9650  163.2332 C.ar    1  UNL1       -0.0189
     27 C         140.7287  138.5978  164.5296 C.ar    1  UNL1        0.0168
     28 C         139.6987  138.8964  165.5784 C.ar    1  UNL1        0.0381
     29 C         139.5066  140.3108  169.2779 C.3     1  UNL1        0.2525
     30 O         139.0798  139.8277  167.9235 O.3     1  UNL1       -0.4714
@<TRIPOS>BOND
     1    29    30    1
     2    30    19    1
     3    19    20   ar
     4    20    21   ar
     5    21    22   ar
     6    22    23   ar
     7    23    24   ar
     8    24    25   ar
     9    25    26   ar
    10    26    18    1
    11    18    17    1
    12     1    17    1
    13     1     2    1
    14     2     3    1
    15     3     4    1
    16     4     7    1
    17     7     9    1
    18     9    10    1
    19    10    11   ar
    20    11    12   ar
    21    12    13   ar
    22    13    14    1
    23    13    15   ar
    24    15    16   ar
    25     4     5    1
    26     5     6    1
    27    26    27   ar
    28    27    28   ar
    29    28    19   ar
    30    27    22   ar
    31     6     1    1
    32    16    10   ar
    33     7     8    1
@<TRIPOS>MOLECULE
*****
 30 33 0 0 0
SMALL
GASTEIGER

@<TRIPOS>ATOM
      1 C         142.4463  144.5594  163.4984 C.3     1  UNL1        0.2355
      2 O         142.3864  143.8461  162.1802 O.3     1  UNL1       -0.3290
      3 C         141.0586  143.4934  161.5780 C.3     1  UNL1        0.1629
      4 C         139.7908  143.8539  162.2940 C.3     1  UNL1        0.1144
      5 C         139.8507  144.5672  163.6122 C.3     1  UNL1        0.1629
      6 O         141.1785  144.9200  164.2144 O.3     1  UNL1       -0.3290
      7 N         138.4630  143.5012  161.6917 N.3     1  UNL1       -0.2908
      8 H         138.6561  142.9472  160.8573 H       1  UNL1        0.1237
      9 C         137.4544  142.7357  162.4959 C.3     1  UNL1        0.0957
     10 C         137.8436  141.4460  163.1554 C.ar    1  UNL1       -0.0063
     11 C         138.0450  140.2113  162.3278 C.ar    1  UNL1       -0.0021
     12 C         138.4342  138.9215  162.9875 C.ar    1  UNL1        0.0111
     13 C         138.6220  138.8665  164.4746 C.ar    1  UNL1        0.0577
     14 CL        139.0113  137.5767  165.1342 Cl      1  UNL1       -0.0822
     15 C         138.4206  140.1012  165.3022 C.ar    1  UNL1        0.0111
     16 C         138.0314  141.3909  164.6427 C.ar    1  UNL1       -0.0021
     17 C         143.7740  144.9122  164.1006 C.3     1  UNL1        0.0660
     18 C         144.3868  144.0208  165.1399 C.3     1  UNL1        0.0316
     19 C         141.4059  141.5145  167.3944 C.ar    1  UNL1        0.1388
     20 C         141.3869  140.0259  167.2114 C.ar    1  UNL1        0.0384
     21 C         142.3616  139.3726  166.2768 C.ar    1  UNL1        0.0222
     22 C         143.3552  140.2080  165.5253 C.ar    1  UNL1        0.0812
     23 N         144.3298  139.5548  164.5907 N.ar    1  UNL1       -0.2439
     24 C         145.3234  140.3902  163.8392 C.ar    1  UNL1        0.0985
     25 C         145.3424  141.8789  164.0223 C.ar    1  UNL1        0.0164
     26 C         144.3678  142.5322  164.9568 C.ar    1  UNL1       -0.0189
     27 C         143.3741  141.6967  165.7084 C.ar    1  UNL1        0.0168
     28 C         142.3995  142.3499  166.6429 C.ar    1  UNL1        0.0381
     29 C         140.2615  141.6417  169.7234 C.3     1  UNL1        0.2525
     30 O         140.4313  142.1677  168.3290 O.3     1  UNL1       -0.4714
@<TRIPOS>BOND
     1    29    30    1
     2    30    19    1
     3    19    20   ar
     4    20    21   ar
     5    21    22   ar
     6    22    23   ar
     7    23    24   ar
     8    24    25   ar
     9    25    26   ar
    10    26    18    1
    11    18    17    1
    12     1    17    1
    13     1     2    1
    14     2     3    1
    15     3     4    1
    16     4     7    1
    17     7     9    1
    18     9    10    1
    19    10    11   ar
    20    11    12   ar
    21    12    13   ar
    22    13    14    1
    23    13    15   ar
    24    15    16   ar
    25     4     5    1
    26     5     6    1
    27    26    27   ar
    28    27    28   ar
    29    28    19   ar
    30    27    22   ar
    31     6     1    1
    32    16    10   ar
    33     7     8    1
@<TRIPOS>MOLECULE
*****
 30 33 0 0 0
SMALL
GASTEIGER

@<TRIPOS>ATOM
      1 C         144.0522  143.1736  162.6835 C.3     1  UNL1        0.2355
      2 O         144.9671  142.3198  163.5105 O.3     1  UNL1       -0.3290
      3 C         145.1078  140.8578  163.2058 C.3     1  UNL1        0.1629
      4 C         144.3336  140.2496  162.0741 C.3     1  UNL1        0.1144
      5 C         143.4186  141.1034  161.2471 C.3     1  UNL1        0.1629
      6 O         143.2779  142.5654  161.5519 O.3     1  UNL1       -0.3290
      7 N         144.4743  138.7877  161.7694 N.3     1  UNL1       -0.2908
      8 H         144.9312  138.3615  162.5756 H       1  UNL1        0.1237
      9 C         143.2568  137.9623  161.4753 C.3     1  UNL1        0.0957
     10 C         142.1187  137.9300  162.4518 C.ar    1  UNL1       -0.0063
     11 C         142.3952  137.9299  163.9261 C.ar    1  UNL1       -0.0021
     12 C         141.2570  137.8976  164.9026 C.ar    1  UNL1        0.0111
     13 C         139.8424  137.8656  164.4048 C.ar    1  UNL1        0.0577
     14 CL        138.7041  137.8334  165.3813 Cl      1  UNL1       -0.0822
     15 C         139.5659  137.8658  162.9305 C.ar    1  UNL1        0.0111
     16 C         140.7040  137.8980  161.9540 C.ar    1  UNL1       -0.0021
     17 C         143.9115  144.6355  162.9882 C.3     1  UNL1        0.0660
     18 C         142.8876  145.0995  163.9814 C.3     1  UNL1        0.0316
     19 C         141.7279  141.5728  166.5245 C.ar    1  UNL1        0.1388
     20 C         140.3292  141.0342  166.4669 C.ar    1  UNL1        0.0384
     21 C         139.3169  141.6712  165.5615 C.ar    1  UNL1        0.0222
     22 C         139.7035  142.8467  164.7138 C.ar    1  UNL1        0.0812
     23 N         138.6912  143.4837  163.8084 N.ar    1  UNL1       -0.2439
     24 C         139.0778  144.6592  162.9608 C.ar    1  UNL1        0.0985
     25 C         140.4766  145.1979  163.0184 C.ar    1  UNL1        0.0164
     26 C         141.4888  144.5609  163.9238 C.ar    1  UNL1       -0.0189
     27 C         141.1022  143.3853  164.7715 C.ar    1  UNL1        0.0168
     28 C         142.1144  142.7484  165.6768 C.ar    1  UNL1        0.0381
     29 C         142.4627  139.5930  168.0379 C.3     1  UNL1        0.2525
     30 O         142.7401  140.9358  167.4299 O.3     1  UNL1       -0.4714
@<TRIPOS>BOND
     1    29    30    1
     2    30    19    1
     3    19    20   ar
     4    20    21   ar
     5    21    22   ar
     6    22    23   ar
     7    23    24   ar
     8    24    25   ar
     9    25    26   ar
    10    26    18    1
    11    18    17    1
    12     1    17    1
    13     1     2    1
    14     2     3    1
    15     3     4    1
    16     4     7    1
    17     7     9    1
    18     9    10    1
    19    10    11   ar
    20    11    12   ar
    21    12    13   ar
    22    13    14    1
    23    13    15   ar
    24    15    16   ar
    25     4     5    1
    26     5     6    1
    27    26    27   ar
    28    27    28   ar
    29    28    19   ar
    30    27    22   ar
    31     6     1    1
    32    16    10   ar
    33     7     8    1
@<TRIPOS>MOLECULE
*****
 30 33 0 0 0
SMALL
GASTEIGER

@<TRIPOS>ATOM
      1 C         143.6877  141.2817  162.8633 C.3     1  UNL1        0.2355
      2 O         142.7561  141.8444  161.8311 O.3     1  UNL1       -0.3290
      3 C         141.7522  140.9535  161.1616 C.3     1  UNL1        0.1629
      4 C         141.6800  139.4997  161.5242 C.3     1  UNL1        0.1144
      5 C         142.6116  138.9370  162.5564 C.3     1  UNL1        0.1629
      6 O         143.6155  139.8281  163.2260 O.3     1  UNL1       -0.3290
      7 N         140.6761  138.6087  160.8547 N.3     1  UNL1       -0.2908
      8 H         141.0404  137.6578  160.9142 H       1  UNL1        0.1237
      9 C         139.2626  138.5630  161.3546 C.3     1  UNL1        0.0957
     10 C         138.9820  138.6860  162.8229 C.ar    1  UNL1       -0.0063
     11 C         139.1465  137.4954  163.7203 C.ar    1  UNL1       -0.0021
     12 C         138.8659  137.6184  165.1887 C.ar    1  UNL1        0.0111
     13 C         138.4209  138.9321  165.7597 C.ar    1  UNL1        0.0577
     14 CL        138.1403  139.0552  167.2281 Cl      1  UNL1       -0.0822
     15 C         138.2563  140.1228  164.8623 C.ar    1  UNL1        0.0111
     16 C         138.5369  139.9998  163.3940 C.ar    1  UNL1       -0.0021
     17 C         144.6916  142.1727  163.5329 C.3     1  UNL1        0.0660
     18 C         144.2625  143.0830  164.6452 C.3     1  UNL1        0.0316
     19 C         140.4159  145.0745  163.4255 C.ar    1  UNL1        0.1388
     20 C         139.1518  144.7907  164.1815 C.ar    1  UNL1        0.0384
     21 C         139.1700  143.8430  165.3441 C.ar    1  UNL1        0.0222
     22 C         140.4521  143.1792  165.7507 C.ar    1  UNL1        0.0812
     23 N         140.4703  142.2315  166.9133 N.ar    1  UNL1       -0.2439
     24 C         141.7524  141.5677  167.3199 C.ar    1  UNL1        0.0985
     25 C         143.0166  141.8515  166.5638 C.ar    1  UNL1        0.0164
     26 C         142.9984  142.7992  165.4012 C.ar    1  UNL1       -0.0189
     27 C         141.7162  143.4630  164.9947 C.ar    1  UNL1        0.0168
     28 C         141.6980  144.4107  163.8321 C.ar    1  UNL1        0.0381
     29 C         140.3980  145.4892  160.8608 C.3     1  UNL1        0.2525
     30 O         140.3977  146.0222  162.2629 O.3     1  UNL1       -0.4714
@<TRIPOS>BOND
     1    29    30    1
     2    30    19    1
     3    19    20   ar
     4    20    21   ar
     5    21    22   ar
     6    22    23   ar
     7    23    24   ar
     8    24    25   ar
     9    25    26   ar
    10    26    18    1
    11    18    17    1
    12     1    17    1
    13     1     2    1
    14     2     3    1
    15     3     4    1
    16     4     7    1
    17     7     9    1
    18     9    10    1
    19    10    11   ar
    20    11    12   ar
    21    12    13   ar
    22    13    14    1
    23    13    15   ar
    24    15    16   ar
    25     4     5    1
    26     5     6    1
    27    26    27   ar
    28    27    28   ar
    29    28    19   ar
    30    27    22   ar
    31     6     1    1
    32    16    10   ar
    33     7     8    1
@<TRIPOS>MOLECULE
*****
 30 33 0 0 0
SMALL
GASTEIGER

@<TRIPOS>ATOM
      1 C         140.3907  138.4199  164.3926 C.3     1  UNL1        0.2355
      2 O         139.3095  138.7820  165.3672 O.3     1  UNL1       -0.3290
      3 C         138.2017  139.7033  164.9502 C.3     1  UNL1        0.1629
      4 C         138.1751  140.2626  163.5586 C.3     1  UNL1        0.1144
      5 C         139.2564  139.9006  162.5840 C.3     1  UNL1        0.1629
      6 O         140.3642  138.9792  163.0011 O.3     1  UNL1       -0.3290
      7 N         137.0674  141.1840  163.1416 N.3     1  UNL1       -0.2908
      8 H         136.1989  140.7757  163.4873 H       1  UNL1        0.1237
      9 C         137.0778  142.6175  163.5831 C.3     1  UNL1        0.0957
     10 C         138.3704  143.3766  163.6357 C.ar    1  UNL1       -0.0063
     11 C         139.2189  143.3282  164.8717 C.ar    1  UNL1       -0.0021
     12 C         140.5116  144.0874  164.9243 C.ar    1  UNL1        0.0111
     13 C         140.9557  144.8950  163.7409 C.ar    1  UNL1        0.0577
     14 CL        142.2483  145.6542  163.7935 Cl      1  UNL1       -0.0822
     15 C         140.1072  144.9435  162.5049 C.ar    1  UNL1        0.0111
     16 C         138.8146  144.1843  162.4523 C.ar    1  UNL1       -0.0021
     17 C         141.4985  137.4986  164.8096 C.3     1  UNL1        0.0660
     18 C         142.7808  138.0623  165.3466 C.3     1  UNL1        0.0316
     19 C         144.6479  141.6779  163.4254 C.ar    1  UNL1        0.1388
     20 C         144.6456  142.9944  164.1442 C.ar    1  UNL1        0.0384
     21 C         144.0209  143.1058  165.5033 C.ar    1  UNL1        0.0222
     22 C         143.3985  141.9006  166.1437 C.ar    1  UNL1        0.0812
     23 N         142.7738  142.0120  167.5029 N.ar    1  UNL1       -0.2439
     24 C         142.1514  140.8068  168.1433 C.ar    1  UNL1        0.0985
     25 C         142.1537  139.4902  167.4245 C.ar    1  UNL1        0.0164
     26 C         142.7784  139.3788  166.0653 C.ar    1  UNL1       -0.0189
     27 C         143.4008  140.5841  165.4250 C.ar    1  UNL1        0.0168
     28 C         144.0255  140.4727  164.0658 C.ar    1  UNL1        0.0381
     29 C         144.8198  142.4684  160.9565 C.3     1  UNL1        0.2525
     30 O         145.2726  141.5666  162.0662 O.3     1  UNL1       -0.4714
@<TRIPOS>BOND
     1    29    30    1
     2    30    19    1
     3    19    20   ar
     4    20    21   ar
     5    21    22   ar
     6    22    23   ar
     7    23    24   ar
     8    24    25   ar
     9    25    26   ar
    10    26    18    1
    11    18    17    1
    12     1    17    1
    13     1     2    1
    14     2     3    1
    15     3     4    1
    16     4     7    1
    17     7     9    1
    18     9    10    1
    19    10    11   ar
    20    11    12   ar
    21    12    13   ar
    22    13    14    1
    23    13    15   ar
    24    15    16   ar
    25     4     5    1
    26     5     6    1
    27    26    27   ar
    28    27    28   ar
    29    28    19   ar
    30    27    22   ar
    31     6     1    1
    32    16    10   ar
    33     7     8    1
@<TRIPOS>MOLECULE
*****
 30 33 0 0 0
SMALL
GASTEIGER

@<TRIPOS>ATOM
      1 C         142.0933  142.7190  165.8680 C.3     1  UNL1        0.2355
      2 O         140.7489  143.1112  166.4055 O.3     1  UNL1       -0.3290
      3 C         139.8027  143.9039  165.5534 C.3     1  UNL1        0.1629
      4 C         140.2008  144.3045  164.1637 C.3     1  UNL1        0.1144
      5 C         141.5451  143.9123  163.6262 C.3     1  UNL1        0.1629
      6 O         142.4914  143.1195  164.4784 O.3     1  UNL1       -0.3290
      7 N         139.2545  145.0972  163.3116 N.3     1  UNL1       -0.2908
      8 H         139.7719  145.3755  162.4777 H       1  UNL1        0.1237
      9 C         137.9724  144.4783  162.8393 C.3     1  UNL1        0.0957
     10 C         137.9272  143.0200  162.4911 C.ar    1  UNL1       -0.0063
     11 C         138.2880  142.5679  161.1071 C.ar    1  UNL1       -0.0021
     12 C         138.2428  141.1095  160.7589 C.ar    1  UNL1        0.0111
     13 C         137.8369  140.1033  161.7946 C.ar    1  UNL1        0.0577
     14 CL        137.7917  138.6450  161.4464 Cl      1  UNL1       -0.0822
     15 C         137.4762  140.5555  163.1786 C.ar    1  UNL1        0.0111
     16 C         137.5213  142.0138  163.5269 C.ar    1  UNL1       -0.0021
     17 C         143.0395  141.9262  166.7201 C.3     1  UNL1        0.0660
     18 C         142.6921  140.5230  167.1208 C.3     1  UNL1        0.0316
     19 C         140.0420  137.9951  164.5062 C.ar    1  UNL1        0.1388
     20 C         138.6472  137.6649  164.9483 C.ar    1  UNL1        0.0384
     21 C         138.1358  138.1774  166.2621 C.ar    1  UNL1        0.0222
     22 C         139.0192  139.0200  167.1336 C.ar    1  UNL1        0.0812
     23 N         138.5078  139.5324  168.4473 N.ar    1  UNL1       -0.2439
     24 C         139.3911  140.3751  169.3189 C.ar    1  UNL1        0.0985
     25 C         140.7860  140.7053  168.8767 C.ar    1  UNL1        0.0164
     26 C         141.2974  140.1929  167.5630 C.ar    1  UNL1       -0.0189
     27 C         140.4139  139.3502  166.6914 C.ar    1  UNL1        0.0168
     28 C         140.9253  138.8378  165.3777 C.ar    1  UNL1        0.0381
     29 C         141.8844  137.9417  162.6752 C.3     1  UNL1        0.2525
     30 O         140.5534  137.4827  163.1924 O.3     1  UNL1       -0.4714
@<TRIPOS>BOND
     1    29    30    1
     2    30    19    1
     3    19    20   ar
     4    20    21   ar
     5    21    22   ar
     6    22    23   ar
     7    23    24   ar
     8    24    25   ar
     9    25    26   ar
    10    26    18    1
    11    18    17    1
    12     1    17    1
    13     1     2    1
    14     2     3    1
    15     3     4    1
    16     4     7    1
    17     7     9    1
    18     9    10    1
    19    10    11   ar
    20    11    12   ar
    21    12    13   ar
    22    13    14    1
    23    13    15   ar
    24    15    16   ar
    25     4     5    1
    26     5     6    1
    27    26    27   ar
    28    27    28   ar
    29    28    19   ar
    30    27    22   ar
    31     6     1    1
    32    16    10   ar
    33     7     8    1
