@<TRIPOS>MOLECULE
*****
 37 42 0 0 0
SMALL
GASTEIGER

@<TRIPOS>ATOM
      1 N         139.1082  141.7017  163.9576 N.3     1  UNL1       -0.2702
      2 C         137.9009  142.2888  163.2885 C.3     1  UNL1        0.0740
      3 C         138.0658  143.1909  162.1013 C.3     1  UNL1        0.0369
      4 C         139.4379  143.5058  161.5834 C.3     1  UNL1        0.0747
      5 C         140.6451  142.9187  162.2527 C.3     1  UNL1        0.0369
      6 C         140.4803  142.0166  163.4397 C.3     1  UNL1        0.0740
      7 O         143.2815  144.0220  170.9442 O.2     1  UNL1       -0.2707
      8 C         142.3662  142.9624  170.4061 C.2     1  UNL1        0.2707
      9 C         141.9312  141.8291  171.2871 C.3     1  UNL1        0.2897
     10 O         141.0160  140.7695  170.7490 O.3     1  UNL1       -0.4644
     11 C         140.5357  140.8432  169.3299 C.ar    1  UNL1        0.1523
     12 C         139.6205  139.7836  168.7918 C.ar    1  UNL1        0.0337
     13 C         139.1402  139.8574  167.3727 C.ar    1  UNL1       -0.0217
     14 C         139.5753  140.9908  166.4917 C.ar    1  UNL1       -0.0103
     15 C         140.4905  142.0504  167.0297 C.ar    1  UNL1        0.0145
     16 C         140.9707  141.9766  168.4489 C.ar    1  UNL1        0.0846
     17 N         141.8860  143.0362  168.9870 N.am    1  UNL1       -0.2785
     18 C         138.9434  140.7997  165.1447 C.3     1  UNL1        0.0802
     19 C         138.1179  139.5482  165.1933 C.3     1  UNL1        0.0251
     20 C         138.2396  138.9659  166.5703 C.3     1  UNL1        0.0279
     21 H         142.1715  143.7801  168.4088 H       1  UNL1        0.1551
     22 N         139.6027  144.4078  160.3964 N.am    1  UNL1       -0.2999
     23 C         139.8569  143.8223  159.0390 C.2     1  UNL1        0.2806
     24 O         139.9464  142.3347  158.8687 O.2     1  UNL1       -0.2668
     25 H         139.5439  145.3842  160.5081 H       1  UNL1        0.1498
     26 C         140.0217  144.7244  157.8520 C.ar    1  UNL1        0.2014
     27 C         140.8943  144.3048  156.7064 C.ar    1  UNL1        0.0843
     28 C         141.0590  145.2069  155.5194 C.ar    1  UNL1        0.2018
     29 O         141.9317  144.7873  154.3738 O.2     1  UNL1       -0.2864
     30 C         140.3511  146.5288  155.4780 C.ar    1  UNL1        0.0737
     31 C         140.5159  147.4309  154.2910 C.ar    1  UNL1        0.0085
     32 C         139.8079  148.7527  154.2496 C.ar    1  UNL1        0.0299
     33 C         138.9353  149.1723  155.3952 C.ar    1  UNL1        0.1432
     34 F         138.2274  150.4941  155.3538 F       1  UNL1       -0.2041
     35 C         138.7706  148.2702  156.5822 C.ar    1  UNL1        0.0672
     36 C         139.4785  146.9484  156.6236 C.ar    1  UNL1        0.1508
     37 O         139.3138  146.0462  157.8105 O.2     1  UNL1       -0.4486
@<TRIPOS>BOND
     1     7     8    2
     2     8     9    1
     3     9    10    1
     4    10    11    1
     5    11    12   ar
     6    12    13   ar
     7    13    14   ar
     8    14    15   ar
     9    15    16   ar
    10    16    17    1
    11    14    18    1
    12    18     1    1
    13     1     2    1
    14     2     3    1
    15     3     4    1
    16     4    22    1
    17    22    23   am
    18    23    24    2
    19    23    26    1
    20    26    27   ar
    21    27    28   ar
    22    28    29    2
    23    28    30   ar
    24    30    31   ar
    25    31    32   ar
    26    32    33   ar
    27    33    34    1
    28    33    35   ar
    29    35    36   ar
    30    36    37   ar
    31     4     5    1
    32     5     6    1
    33    18    19    1
    34    19    20    1
    35    17     8   am
    36     6     1    1
    37    16    11   ar
    38    37    26   ar
    39    20    13    1
    40    36    30   ar
    41    17    21    1
    42    22    25    1
@<TRIPOS>MOLECULE
*****
 37 42 0 0 0
SMALL
GASTEIGER

@<TRIPOS>ATOM
      1 N         143.1063  140.2169  163.4153 N.3     1  UNL1       -0.2702
      2 C         141.7965  140.2215  162.6842 C.3     1  UNL1        0.0740
      3 C         141.5634  139.2594  161.5571 C.3     1  UNL1        0.0369
      4 C         142.6399  138.2928  161.1613 C.3     1  UNL1        0.0747
      5 C         143.9497  138.2883  161.8924 C.3     1  UNL1        0.0369
      6 C         144.1828  139.2503  163.0194 C.3     1  UNL1        0.0740
      7 O         137.8947  139.4519  170.0385 O.2     1  UNL1       -0.2707
      8 C         139.0563  140.2529  169.5295 C.2     1  UNL1        0.2707
      9 C         139.6297  141.3577  170.3665 C.3     1  UNL1        0.2897
     10 O         140.7913  142.1587  169.8575 O.3     1  UNL1       -0.4644
     11 C         141.3795  141.8549  168.5115 C.ar    1  UNL1        0.1523
     12 C         142.5411  142.6559  168.0025 C.ar    1  UNL1        0.0337
     13 C         143.1293  142.3521  166.6565 C.ar    1  UNL1       -0.0217
     14 C         142.5559  141.2473  165.8195 C.ar    1  UNL1       -0.0103
     15 C         141.3943  140.4463  166.3285 C.ar    1  UNL1        0.0145
     16 C         140.8061  140.7502  167.6745 C.ar    1  UNL1        0.0846
     17 N         139.6445  139.9492  168.1835 N.am    1  UNL1       -0.2785
     18 C         143.3395  141.1789  164.5422 C.3     1  UNL1        0.0802
     19 C         144.3972  142.2414  164.5899 C.3     1  UNL1        0.0251
     20 C         144.2673  142.9665  165.8966 C.3     1  UNL1        0.0279
     21 H         139.2681  139.2241  167.6341 H       1  UNL1        0.1551
     22 N         142.4067  137.3308  160.0343 N.am    1  UNL1       -0.2999
     23 C         142.7739  137.7154  158.6317 C.2     1  UNL1        0.2806
     24 O         143.3743  139.0621  158.3561 O.2     1  UNL1       -0.2668
     25 H         142.0127  136.4469  160.2152 H       1  UNL1        0.1498
     26 C         142.5406  136.7534  157.5048 C.ar    1  UNL1        0.2014
     27 C         141.5176  137.0642  156.4528 C.ar    1  UNL1        0.0843
     28 C         141.2844  136.1021  155.3259 C.ar    1  UNL1        0.2018
     29 O         140.2614  136.4129  154.2739 O.2     1  UNL1       -0.2864
     30 C         142.0743  134.8290  155.2510 C.ar    1  UNL1        0.0737
     31 C         141.8410  133.8669  154.1241 C.ar    1  UNL1        0.0085
     32 C         142.6309  132.5939  154.0492 C.ar    1  UNL1        0.0299
     33 C         143.6539  132.2831  155.1012 C.ar    1  UNL1        0.1432
     34 F         144.4438  131.0101  155.0263 F       1  UNL1       -0.2041
     35 C         143.8872  133.2452  156.2281 C.ar    1  UNL1        0.0672
     36 C         143.0973  134.5182  156.3030 C.ar    1  UNL1        0.1508
     37 O         143.3305  135.4803  157.4298 O.2     1  UNL1       -0.4486
@<TRIPOS>BOND
     1     7     8    2
     2     8     9    1
     3     9    10    1
     4    10    11    1
     5    11    12   ar
     6    12    13   ar
     7    13    14   ar
     8    14    15   ar
     9    15    16   ar
    10    16    17    1
    11    14    18    1
    12    18     1    1
    13     1     2    1
    14     2     3    1
    15     3     4    1
    16     4    22    1
    17    22    23   am
    18    23    24    2
    19    23    26    1
    20    26    27   ar
    21    27    28   ar
    22    28    29    2
    23    28    30   ar
    24    30    31   ar
    25    31    32   ar
    26    32    33   ar
    27    33    34    1
    28    33    35   ar
    29    35    36   ar
    30    36    37   ar
    31     4     5    1
    32     5     6    1
    33    18    19    1
    34    19    20    1
    35    17     8   am
    36     6     1    1
    37    16    11   ar
    38    37    26   ar
    39    20    13    1
    40    36    30   ar
    41    17    21    1
    42    22    25    1
@<TRIPOS>MOLECULE
*****
 37 42 0 0 0
SMALL
GASTEIGER

@<TRIPOS>ATOM
      1 N         142.7089  141.3370  163.5596 N.3     1  UNL1       -0.2702
      2 C         141.3137  141.7585  163.2051 C.3     1  UNL1        0.0740
      3 C         141.0816  142.6896  162.0521 C.3     1  UNL1        0.0369
      4 C         142.2447  143.1991  161.2536 C.3     1  UNL1        0.0747
      5 C         143.6399  142.7775  161.6081 C.3     1  UNL1        0.0369
      6 C         143.8720  141.8465  162.7610 C.3     1  UNL1        0.0740
      7 O         139.4914  143.8094  170.9857 O.2     1  UNL1       -0.2707
      8 C         140.2685  142.7008  170.3398 C.2     1  UNL1        0.2707
      9 C         140.7195  141.5263  171.1565 C.3     1  UNL1        0.2897
     10 O         141.4966  140.4177  170.5106 O.3     1  UNL1       -0.4644
     11 C         141.8227  140.4837  169.0480 C.ar    1  UNL1        0.1523
     12 C         142.5998  139.3751  168.4021 C.ar    1  UNL1        0.0337
     13 C         142.9258  139.4410  166.9395 C.ar    1  UNL1       -0.0217
     14 C         142.4748  140.6156  166.1227 C.ar    1  UNL1       -0.0103
     15 C         141.6977  141.7241  166.7686 C.ar    1  UNL1        0.0145
     16 C         141.3716  141.6582  168.2313 C.ar    1  UNL1        0.0846
     17 N         140.5945  142.7667  168.8772 N.am    1  UNL1       -0.2785
     18 C         142.9411  140.4060  164.7125 C.3     1  UNL1        0.0802
     19 C         143.6804  139.1020  164.6577 C.3     1  UNL1        0.0251
     20 C         143.6709  138.5056  166.0340 C.3     1  UNL1        0.0279
     21 H         140.2985  143.5376  168.3411 H       1  UNL1        0.1551
     22 N         142.0125  144.1301  160.1007 N.am    1  UNL1       -0.2999
     23 C         141.4238  143.6095  158.8230 C.2     1  UNL1        0.2806
     24 O         141.0673  142.1578  158.6983 O.2     1  UNL1       -0.2668
     25 H         142.2465  145.0829  160.1825 H       1  UNL1        0.1498
     26 C         141.1917  144.5406  157.6702 C.ar    1  UNL1        0.2014
     27 C         141.8980  144.3113  156.3669 C.ar    1  UNL1        0.0843
     28 C         141.6658  145.2425  155.2141 C.ar    1  UNL1        0.2018
     29 O         142.3722  145.0133  153.9108 O.2     1  UNL1       -0.2864
     30 C         140.7272  146.4029  155.3644 C.ar    1  UNL1        0.0737
     31 C         140.4951  147.3340  154.2116 C.ar    1  UNL1        0.0085
     32 C         139.5565  148.4944  154.3620 C.ar    1  UNL1        0.0299
     33 C         138.8502  148.7236  155.6653 C.ar    1  UNL1        0.1432
     34 F         137.9116  149.8840  155.8157 F       1  UNL1       -0.2041
     35 C         139.0823  147.7925  156.8181 C.ar    1  UNL1        0.0672
     36 C         140.0209  146.6322  156.6677 C.ar    1  UNL1        0.1508
     37 O         140.2531  145.7010  157.8205 O.2     1  UNL1       -0.4486
@<TRIPOS>BOND
     1     7     8    2
     2     8     9    1
     3     9    10    1
     4    10    11    1
     5    11    12   ar
     6    12    13   ar
     7    13    14   ar
     8    14    15   ar
     9    15    16   ar
    10    16    17    1
    11    14    18    1
    12    18     1    1
    13     1     2    1
    14     2     3    1
    15     3     4    1
    16     4    22    1
    17    22    23   am
    18    23    24    2
    19    23    26    1
    20    26    27   ar
    21    27    28   ar
    22    28    29    2
    23    28    30   ar
    24    30    31   ar
    25    31    32   ar
    26    32    33   ar
    27    33    34    1
    28    33    35   ar
    29    35    36   ar
    30    36    37   ar
    31     4     5    1
    32     5     6    1
    33    18    19    1
    34    19    20    1
    35    17     8   am
    36     6     1    1
    37    16    11   ar
    38    37    26   ar
    39    20    13    1
    40    36    30   ar
    41    17    21    1
    42    22    25    1
@<TRIPOS>MOLECULE
*****
 37 42 0 0 0
SMALL
GASTEIGER

@<TRIPOS>ATOM
      1 N         140.0842  139.3814  163.8029 N.3     1  UNL1       -0.2702
      2 C         140.0833  140.6682  163.0321 C.3     1  UNL1        0.0740
      3 C         140.6689  140.7160  161.6519 C.3     1  UNL1        0.0369
      4 C         141.2552  139.4771  161.0425 C.3     1  UNL1        0.0747
      5 C         141.2560  138.1903  161.8134 C.3     1  UNL1        0.0369
      6 C         140.6705  138.1425  163.1935 C.3     1  UNL1        0.0740
      7 O         144.6709  143.0885  169.8719 O.2     1  UNL1       -0.2707
      8 C         143.3901  142.3424  169.6416 C.2     1  UNL1        0.2707
      9 C         142.4672  142.0642  170.7908 C.3     1  UNL1        0.2897
     10 O         141.1864  141.3181  170.5606 O.3     1  UNL1       -0.4644
     11 C         140.8287  140.8501  169.1811 C.ar    1  UNL1        0.1523
     12 C         139.5479  140.1040  168.9508 C.ar    1  UNL1        0.0337
     13 C         139.1901  139.6361  167.5714 C.ar    1  UNL1       -0.0217
     14 C         140.1131  139.9142  166.4221 C.ar    1  UNL1       -0.0103
     15 C         141.3939  140.6603  166.6524 C.ar    1  UNL1        0.0145
     16 C         141.7516  141.1283  168.0319 C.ar    1  UNL1        0.0846
     17 N         143.0324  141.8744  168.2622 N.am    1  UNL1       -0.2785
     18 C         139.4987  139.3335  165.1831 C.3     1  UNL1        0.0802
     19 C         138.1959  138.6965  165.5665 C.3     1  UNL1        0.0251
     20 C         138.0053  138.8835  167.0426 C.3     1  UNL1        0.0279
     21 H         143.6382  142.0569  167.5079 H       1  UNL1        0.1551
     22 N         141.8407  139.5251  159.6624 N.am    1  UNL1       -0.2999
     23 C         143.2121  140.0941  159.4488 C.2     1  UNL1        0.2806
     24 O         143.9979  140.6152  160.6153 O.2     1  UNL1       -0.2668
     25 H         141.3250  139.1831  158.8967 H       1  UNL1        0.1498
     26 C         143.7975  140.1420  158.0686 C.ar    1  UNL1        0.2014
     27 C         143.2492  139.2553  156.9901 C.ar    1  UNL1        0.0843
     28 C         143.8347  139.3032  155.6099 C.ar    1  UNL1        0.2018
     29 O         143.2864  138.4165  154.5315 O.2     1  UNL1       -0.2864
     30 C         144.9685  140.2379  155.3082 C.ar    1  UNL1        0.0737
     31 C         145.5539  140.2858  153.9280 C.ar    1  UNL1        0.0085
     32 C         146.6877  141.2204  153.6263 C.ar    1  UNL1        0.0299
     33 C         147.2360  142.1071  154.7048 C.ar    1  UNL1        0.1432
     34 F         148.3697  143.0418  154.4031 F       1  UNL1       -0.2041
     35 C         146.6506  142.0592  156.0850 C.ar    1  UNL1        0.0672
     36 C         145.5168  141.1246  156.3866 C.ar    1  UNL1        0.1508
     37 O         144.9313  141.0766  157.7668 O.2     1  UNL1       -0.4486
@<TRIPOS>BOND
     1     7     8    2
     2     8     9    1
     3     9    10    1
     4    10    11    1
     5    11    12   ar
     6    12    13   ar
     7    13    14   ar
     8    14    15   ar
     9    15    16   ar
    10    16    17    1
    11    14    18    1
    12    18     1    1
    13     1     2    1
    14     2     3    1
    15     3     4    1
    16     4    22    1
    17    22    23   am
    18    23    24    2
    19    23    26    1
    20    26    27   ar
    21    27    28   ar
    22    28    29    2
    23    28    30   ar
    24    30    31   ar
    25    31    32   ar
    26    32    33   ar
    27    33    34    1
    28    33    35   ar
    29    35    36   ar
    30    36    37   ar
    31     4     5    1
    32     5     6    1
    33    18    19    1
    34    19    20    1
    35    17     8   am
    36     6     1    1
    37    16    11   ar
    38    37    26   ar
    39    20    13    1
    40    36    30   ar
    41    17    21    1
    42    22    25    1
@<TRIPOS>MOLECULE
*****
 37 42 0 0 0
SMALL
GASTEIGER

@<TRIPOS>ATOM
      1 N         141.1421  137.7076  157.4878 N.3     1  UNL1       -0.2702
      2 C         142.5165  137.6393  158.0848 C.3     1  UNL1        0.0740
      3 C         142.7594  138.1623  159.4697 C.3     1  UNL1        0.0369
      4 C         141.6280  138.7535  160.2573 C.3     1  UNL1        0.0747
      5 C         140.2536  138.8217  159.6602 C.3     1  UNL1        0.0369
      6 C         140.0107  138.2988  158.2754 C.3     1  UNL1        0.0740
      7 O         144.8495  130.3276  155.6428 O.2     1  UNL1       -0.2707
      8 C         143.9708  131.3928  155.0569 C.2     1  UNL1        0.2707
      9 C         143.4781  131.2663  153.6458 C.3     1  UNL1        0.2897
     10 O         142.5993  132.3315  153.0599 O.3     1  UNL1       -0.4644
     11 C         142.2133  133.5231  153.8851 C.ar    1  UNL1        0.1523
     12 C         141.3346  134.5883  153.2992 C.ar    1  UNL1        0.0337
     13 C         140.9486  135.7799  154.1244 C.ar    1  UNL1       -0.0217
     14 C         141.4413  135.9064  155.5356 C.ar    1  UNL1       -0.0103
     15 C         142.3201  134.8413  156.1215 C.ar    1  UNL1        0.0145
     16 C         142.7060  133.6496  155.2962 C.ar    1  UNL1        0.0846
     17 N         143.5848  132.5844  155.8821 N.am    1  UNL1       -0.2785
     18 C         140.8991  137.1847  156.1030 C.3     1  UNL1        0.0802
     19 C         140.0713  137.8483  155.0427 C.3     1  UNL1        0.0251
     20 C         140.1019  136.9801  153.8198 C.3     1  UNL1        0.0279
     21 H         143.9081  132.6674  156.8083 H       1  UNL1        0.1551
     22 N         141.8710  139.2764  161.6421 N.am    1  UNL1       -0.2999
     23 C         141.5120  138.4390  162.8337 C.2     1  UNL1        0.2806
     24 O         140.9101  137.0787  162.6406 O.2     1  UNL1       -0.2668
     25 H         142.2660  140.1692  161.7688 H       1  UNL1        0.1498
     26 C         141.7550  138.9619  164.2184 C.ar    1  UNL1        0.2014
     27 C         142.7121  138.2534  165.1305 C.ar    1  UNL1        0.0843
     28 C         142.9551  138.7765  166.5152 C.ar    1  UNL1        0.2018
     29 O         143.9122  138.0680  167.4273 O.2     1  UNL1       -0.2864
     30 C         142.2410  140.0080  166.9878 C.ar    1  UNL1        0.0737
     31 C         142.4840  140.5310  168.3725 C.ar    1  UNL1        0.0085
     32 C         141.7698  141.7626  168.8451 C.ar    1  UNL1        0.0299
     33 C         140.8127  142.4710  167.9330 C.ar    1  UNL1        0.1432
     34 F         140.0985  143.7026  168.4055 F       1  UNL1       -0.2041
     35 C         140.5697  141.9481  166.5483 C.ar    1  UNL1        0.0672
     36 C         141.2839  140.7165  166.0757 C.ar    1  UNL1        0.1508
     37 O         141.0409  140.1935  164.6910 O.2     1  UNL1       -0.4486
@<TRIPOS>BOND
     1     7     8    2
     2     8     9    1
     3     9    10    1
     4    10    11    1
     5    11    12   ar
     6    12    13   ar
     7    13    14   ar
     8    14    15   ar
     9    15    16   ar
    10    16    17    1
    11    14    18    1
    12    18     1    1
    13     1     2    1
    14     2     3    1
    15     3     4    1
    16     4    22    1
    17    22    23   am
    18    23    24    2
    19    23    26    1
    20    26    27   ar
    21    27    28   ar
    22    28    29    2
    23    28    30   ar
    24    30    31   ar
    25    31    32   ar
    26    32    33   ar
    27    33    34    1
    28    33    35   ar
    29    35    36   ar
    30    36    37   ar
    31     4     5    1
    32     5     6    1
    33    18    19    1
    34    19    20    1
    35    17     8   am
    36     6     1    1
    37    16    11   ar
    38    37    26   ar
    39    20    13    1
    40    36    30   ar
    41    17    21    1
    42    22    25    1
@<TRIPOS>MOLECULE
*****
 37 42 0 0 0
SMALL
GASTEIGER

@<TRIPOS>ATOM
      1 N         142.0180  138.0007  158.5120 N.3     1  UNL1       -0.2702
      2 C         142.9477  137.5923  159.6160 C.3     1  UNL1        0.0740
      3 C         142.6996  138.0640  161.0182 C.3     1  UNL1        0.0369
      4 C         141.5220  138.9439  161.3164 C.3     1  UNL1        0.0747
      5 C         140.5923  139.3522  160.2122 C.3     1  UNL1        0.0369
      6 C         140.8404  138.8806  158.8101 C.3     1  UNL1        0.0740
      7 O         143.7763  129.7669  157.6601 O.2     1  UNL1       -0.2707
      8 C         143.6064  131.0313  156.8712 C.2     1  UNL1        0.2707
      9 C         143.7722  131.0133  155.3806 C.3     1  UNL1        0.2897
     10 O         143.6023  132.2777  154.5917 O.3     1  UNL1       -0.4644
     11 C         143.2666  133.5602  155.2934 C.ar    1  UNL1        0.1523
     12 C         143.0967  134.8246  154.5045 C.ar    1  UNL1        0.0337
     13 C         142.7609  136.1070  155.2062 C.ar    1  UNL1       -0.0217
     14 C         142.5950  136.1251  156.6970 C.ar    1  UNL1       -0.0103
     15 C         142.7649  134.8607  157.4859 C.ar    1  UNL1        0.0145
     16 C         143.1007  133.5782  156.7841 C.ar    1  UNL1        0.0846
     17 N         143.2706  132.3138  157.5730 N.am    1  UNL1       -0.2785
     18 C         142.2660  137.5292  157.1098 C.3     1  UNL1        0.0802
     19 C         142.2286  138.3789  155.8742 C.3     1  UNL1        0.0251
     20 C         142.5345  137.4999  154.6978 C.3     1  UNL1        0.0279
     21 H         143.1617  132.3256  158.5514 H       1  UNL1        0.1551
     22 N         141.2740  139.4154  162.7185 N.am    1  UNL1       -0.2999
     23 C         140.2725  138.7072  163.5819 C.2     1  UNL1        0.2806
     24 O         139.5189  137.5274  163.0431 O.2     1  UNL1       -0.2668
     25 H         141.7685  140.1897  163.0722 H       1  UNL1        0.1498
     26 C         140.0245  139.1788  164.9841 C.ar    1  UNL1        0.2014
     27 C         138.8851  138.6097  165.7764 C.ar    1  UNL1        0.0843
     28 C         138.6372  139.0814  167.1785 C.ar    1  UNL1        0.2018
     29 O         137.4977  138.5123  167.9708 O.2     1  UNL1       -0.2864
     30 C         139.5288  140.1221  167.7885 C.ar    1  UNL1        0.0737
     31 C         139.2809  140.5937  169.1906 C.ar    1  UNL1        0.0085
     32 C         140.1725  141.6344  169.8005 C.ar    1  UNL1        0.0299
     33 C         141.3120  142.2035  169.0082 C.ar    1  UNL1        0.1432
     34 F         142.2036  143.2442  169.6180 F       1  UNL1       -0.2041
     35 C         141.5599  141.7319  167.6060 C.ar    1  UNL1        0.0672
     36 C         140.6683  140.6911  166.9962 C.ar    1  UNL1        0.1508
     37 O         140.9161  140.2195  165.5940 O.2     1  UNL1       -0.4486
@<TRIPOS>BOND
     1     7     8    2
     2     8     9    1
     3     9    10    1
     4    10    11    1
     5    11    12   ar
     6    12    13   ar
     7    13    14   ar
     8    14    15   ar
     9    15    16   ar
    10    16    17    1
    11    14    18    1
    12    18     1    1
    13     1     2    1
    14     2     3    1
    15     3     4    1
    16     4    22    1
    17    22    23   am
    18    23    24    2
    19    23    26    1
    20    26    27   ar
    21    27    28   ar
    22    28    29    2
    23    28    30   ar
    24    30    31   ar
    25    31    32   ar
    26    32    33   ar
    27    33    34    1
    28    33    35   ar
    29    35    36   ar
    30    36    37   ar
    31     4     5    1
    32     5     6    1
    33    18    19    1
    34    19    20    1
    35    17     8   am
    36     6     1    1
    37    16    11   ar
    38    37    26   ar
    39    20    13    1
    40    36    30   ar
    41    17    21    1
    42    22    25    1
@<TRIPOS>MOLECULE
*****
 37 42 0 0 0
SMALL
GASTEIGER

@<TRIPOS>ATOM
      1 N         142.5557  140.6586  163.5195 N.3     1  UNL1       -0.2702
      2 C         141.1700  140.7770  162.9574 C.3     1  UNL1        0.0740
      3 C         140.9487  141.4764  161.6490 C.3     1  UNL1        0.0369
      4 C         142.1129  142.0575  160.9027 C.3     1  UNL1        0.0747
      5 C         143.4986  141.9391  161.4648 C.3     1  UNL1        0.0369
      6 C         143.7199  141.2397  162.7732 C.3     1  UNL1        0.0740
      7 O         139.7268  144.7204  170.3833 O.2     1  UNL1       -0.2707
      8 C         140.4218  143.4633  169.9512 C.2     1  UNL1        0.2707
      9 C         140.8375  142.4469  170.9731 C.3     1  UNL1        0.2897
     10 O         141.5325  141.1898  170.5410 O.3     1  UNL1       -0.4644
     11 C         141.8119  140.9491  169.0871 C.ar    1  UNL1        0.1523
     12 C         142.5069  139.6920  168.6551 C.ar    1  UNL1        0.0337
     13 C         142.7862  139.4512  167.2011 C.ar    1  UNL1       -0.0217
     14 C         142.3706  140.4676  166.1792 C.ar    1  UNL1       -0.0103
     15 C         141.6756  141.7247  166.6112 C.ar    1  UNL1        0.0145
     16 C         141.3962  141.9654  168.0653 C.ar    1  UNL1        0.0846
     17 N         140.7012  143.2225  168.4973 N.am    1  UNL1       -0.2785
     18 C         142.7772  139.9592  164.8278 C.3     1  UNL1        0.0802
     19 C         143.4441  138.6287  165.0145 C.3     1  UNL1        0.0251
     20 C         143.4497  138.3147  166.4813 C.3     1  UNL1        0.0279
     21 H         140.4284  143.8896  167.8266 H       1  UNL1        0.1551
     22 N         141.8914  142.7569  159.5944 N.am    1  UNL1       -0.2999
     23 C         141.4334  144.1851  159.5755 C.2     1  UNL1        0.2806
     24 O         141.1969  144.9140  160.8650 O.2     1  UNL1       -0.2668
     25 H         142.0466  142.2785  158.7480 H       1  UNL1        0.1498
     26 C         141.2120  144.8844  158.2672 C.ar    1  UNL1        0.2014
     27 C         140.1360  145.9222  158.1441 C.ar    1  UNL1        0.0843
     28 C         139.9146  146.6215  156.8356 C.ar    1  UNL1        0.2018
     29 O         138.8386  147.6593  156.7125 O.2     1  UNL1       -0.2864
     30 C         140.7692  146.2830  155.6502 C.ar    1  UNL1        0.0737
     31 C         140.5478  146.9823  154.3419 C.ar    1  UNL1        0.0085
     32 C         141.4024  146.6438  153.1565 C.ar    1  UNL1        0.0299
     33 C         142.4784  145.6060  153.2796 C.ar    1  UNL1        0.1432
     34 F         143.3331  145.2674  152.0943 F       1  UNL1       -0.2041
     35 C         142.6999  144.9067  154.5880 C.ar    1  UNL1        0.0672
     36 C         141.8452  145.2452  155.7733 C.ar    1  UNL1        0.1508
     37 O         142.0666  144.5459  157.0818 O.2     1  UNL1       -0.4486
@<TRIPOS>BOND
     1     7     8    2
     2     8     9    1
     3     9    10    1
     4    10    11    1
     5    11    12   ar
     6    12    13   ar
     7    13    14   ar
     8    14    15   ar
     9    15    16   ar
    10    16    17    1
    11    14    18    1
    12    18     1    1
    13     1     2    1
    14     2     3    1
    15     3     4    1
    16     4    22    1
    17    22    23   am
    18    23    24    2
    19    23    26    1
    20    26    27   ar
    21    27    28   ar
    22    28    29    2
    23    28    30   ar
    24    30    31   ar
    25    31    32   ar
    26    32    33   ar
    27    33    34    1
    28    33    35   ar
    29    35    36   ar
    30    36    37   ar
    31     4     5    1
    32     5     6    1
    33    18    19    1
    34    19    20    1
    35    17     8   am
    36     6     1    1
    37    16    11   ar
    38    37    26   ar
    39    20    13    1
    40    36    30   ar
    41    17    21    1
    42    22    25    1
@<TRIPOS>MOLECULE
*****
 37 42 0 0 0
SMALL
GASTEIGER

@<TRIPOS>ATOM
      1 N         141.5568  136.9639  156.8707 N.3     1  UNL1       -0.2702
      2 C         142.7282  137.2837  157.7514 C.3     1  UNL1        0.0740
      3 C         142.5463  138.1676  158.9496 C.3     1  UNL1        0.0369
      4 C         141.1931  138.7316  159.2672 C.3     1  UNL1        0.0747
      5 C         140.0218  138.4118  158.3864 C.3     1  UNL1        0.0369
      6 C         140.2036  137.5279  157.1882 C.3     1  UNL1        0.0740
      7 O         144.7817  129.2942  158.4163 O.2     1  UNL1       -0.2707
      8 C         144.2845  130.1699  157.3045 C.2     1  UNL1        0.2707
      9 C         144.2883  129.6640  155.8924 C.3     1  UNL1        0.2897
     10 O         143.7911  130.5397  154.7807 O.3     1  UNL1       -0.4644
     11 C         143.2901  131.9212  155.0810 C.ar    1  UNL1        0.1523
     12 C         142.7928  132.7968  153.9692 C.ar    1  UNL1        0.0337
     13 C         142.2918  134.1784  154.2695 C.ar    1  UNL1       -0.0217
     14 C         142.2879  134.6843  155.6817 C.ar    1  UNL1       -0.0103
     15 C         142.7851  133.8087  156.7934 C.ar    1  UNL1        0.0145
     16 C         143.2862  132.4271  156.4930 C.ar    1  UNL1        0.0846
     17 N         143.7834  131.5514  157.6048 N.am    1  UNL1       -0.2785
     18 C         141.7385  136.0801  155.6725 C.3     1  UNL1        0.0802
     19 C         141.4029  136.4368  154.2547 C.3     1  UNL1        0.0251
     20 C         141.7448  135.2615  153.3876 C.3     1  UNL1        0.0279
     21 H         143.7809  131.8835  158.5316 H       1  UNL1        0.1551
     22 N         141.0114  139.6155  160.4654 N.am    1  UNL1       -0.2999
     23 C         140.7653  139.0083  161.8148 C.2     1  UNL1        0.2806
     24 O         140.7010  137.5174  161.9660 O.2     1  UNL1       -0.2668
     25 H         141.0536  140.5940  160.3662 H       1  UNL1        0.1498
     26 C         140.5835  139.8922  163.0130 C.ar    1  UNL1        0.2014
     27 C         139.2787  140.5986  163.2329 C.ar    1  UNL1        0.0843
     28 C         139.0970  141.4825  164.4311 C.ar    1  UNL1        0.2018
     29 O         137.7922  142.1889  164.6511 O.2     1  UNL1       -0.2864
     30 C         140.2202  141.6601  165.4094 C.ar    1  UNL1        0.0737
     31 C         140.0384  142.5440  166.6076 C.ar    1  UNL1        0.0085
     32 C         141.1616  142.7215  167.5859 C.ar    1  UNL1        0.0299
     33 C         142.4664  142.0151  167.3659 C.ar    1  UNL1        0.1432
     34 F         143.5896  142.1926  168.3442 F       1  UNL1       -0.2041
     35 C         142.6482  141.1312  166.1678 C.ar    1  UNL1        0.0672
     36 C         141.5250  140.9537  165.1895 C.ar    1  UNL1        0.1508
     37 O         141.7067  140.0698  163.9913 O.2     1  UNL1       -0.4486
@<TRIPOS>BOND
     1     7     8    2
     2     8     9    1
     3     9    10    1
     4    10    11    1
     5    11    12   ar
     6    12    13   ar
     7    13    14   ar
     8    14    15   ar
     9    15    16   ar
    10    16    17    1
    11    14    18    1
    12    18     1    1
    13     1     2    1
    14     2     3    1
    15     3     4    1
    16     4    22    1
    17    22    23   am
    18    23    24    2
    19    23    26    1
    20    26    27   ar
    21    27    28   ar
    22    28    29    2
    23    28    30   ar
    24    30    31   ar
    25    31    32   ar
    26    32    33   ar
    27    33    34    1
    28    33    35   ar
    29    35    36   ar
    30    36    37   ar
    31     4     5    1
    32     5     6    1
    33    18    19    1
    34    19    20    1
    35    17     8   am
    36     6     1    1
    37    16    11   ar
    38    37    26   ar
    39    20    13    1
    40    36    30   ar
    41    17    21    1
    42    22    25    1
@<TRIPOS>MOLECULE
*****
 37 42 0 0 0
SMALL
GASTEIGER

@<TRIPOS>ATOM
      1 N         140.6051  140.0867  163.2944 N.3     1  UNL1       -0.2702
      2 C         139.9181  140.8392  162.1936 C.3     1  UNL1        0.0740
      3 C         140.6192  141.0618  160.8863 C.3     1  UNL1        0.0369
      4 C         142.0072  140.5318  160.6797 C.3     1  UNL1        0.0747
      5 C         142.6941  139.7793  161.7806 C.3     1  UNL1        0.0369
      6 C         141.9931  139.5567  163.0878 C.3     1  UNL1        0.0740
      7 O         144.5164  143.1742  170.1341 O.2     1  UNL1       -0.2707
      8 C         143.2872  142.4286  169.7060 C.2     1  UNL1        0.2707
      9 C         142.2783  141.9960  170.7282 C.3     1  UNL1        0.2897
     10 O         141.0491  141.2505  170.3001 O.3     1  UNL1       -0.4644
     11 C         140.8288  140.9375  168.8498 C.ar    1  UNL1        0.1523
     12 C         139.5997  140.1920  168.4217 C.ar    1  UNL1        0.0337
     13 C         139.3794  139.8790  166.9713 C.ar    1  UNL1       -0.0217
     14 C         140.3883  140.3116  165.9490 C.ar    1  UNL1       -0.0103
     15 C         141.6175  141.0572  166.3772 C.ar    1  UNL1        0.0145
     16 C         141.8377  141.3701  167.8276 C.ar    1  UNL1        0.0846
     17 N         143.0669  142.1157  168.2557 N.am    1  UNL1       -0.2785
     18 C         139.9042  139.8641  164.6017 C.3     1  UNL1        0.0802
     19 C         138.5961  139.1549  164.7912 C.3     1  UNL1        0.0251
     20 C         138.2718  139.1641  166.2557 C.3     1  UNL1        0.0279
     21 H         143.7291  142.3996  167.5848 H       1  UNL1        0.1551
     22 N         142.7081  140.7544  159.3724 N.am    1  UNL1       -0.2999
     23 C         143.4321  142.0435  159.1196 C.2     1  UNL1        0.2806
     24 O         143.4552  143.1101  160.1740 O.2     1  UNL1       -0.2668
     25 H         142.6930  140.0544  158.6803 H       1  UNL1        0.1498
     26 C         144.1330  142.2660  157.8122 C.ar    1  UNL1        0.2014
     27 C         143.3476  142.6666  156.5987 C.ar    1  UNL1        0.0843
     28 C         144.0486  142.8891  155.2914 C.ar    1  UNL1        0.2018
     29 O         143.2632  143.2897  154.0779 O.2     1  UNL1       -0.2864
     30 C         145.5351  142.7110  155.1975 C.ar    1  UNL1        0.0737
     31 C         146.2360  142.9335  153.8902 C.ar    1  UNL1        0.0085
     32 C         147.7224  142.7554  153.7964 C.ar    1  UNL1        0.0299
     33 C         148.5079  142.3548  155.0099 C.ar    1  UNL1        0.1432
     34 F         149.9943  142.1766  154.9161 F       1  UNL1       -0.2041
     35 C         147.8070  142.1323  156.3172 C.ar    1  UNL1        0.0672
     36 C         146.3205  142.3104  156.4110 C.ar    1  UNL1        0.1508
     37 O         145.6195  142.0879  157.7183 O.2     1  UNL1       -0.4486
@<TRIPOS>BOND
     1     7     8    2
     2     8     9    1
     3     9    10    1
     4    10    11    1
     5    11    12   ar
     6    12    13   ar
     7    13    14   ar
     8    14    15   ar
     9    15    16   ar
    10    16    17    1
    11    14    18    1
    12    18     1    1
    13     1     2    1
    14     2     3    1
    15     3     4    1
    16     4    22    1
    17    22    23   am
    18    23    24    2
    19    23    26    1
    20    26    27   ar
    21    27    28   ar
    22    28    29    2
    23    28    30   ar
    24    30    31   ar
    25    31    32   ar
    26    32    33   ar
    27    33    34    1
    28    33    35   ar
    29    35    36   ar
    30    36    37   ar
    31     4     5    1
    32     5     6    1
    33    18    19    1
    34    19    20    1
    35    17     8   am
    36     6     1    1
    37    16    11   ar
    38    37    26   ar
    39    20    13    1
    40    36    30   ar
    41    17    21    1
    42    22    25    1
