@<TRIPOS>MOLECULE
*****
 32 35 0 0 0
SMALL
GASTEIGER

@<TRIPOS>ATOM
      1 N         144.0922  142.9624  163.8331 N.3     1  UNL1       -0.2715
      2 N         141.4100  141.9903  167.3131 N.pl3   1  UNL1       -0.2784
      3 C         140.8913  141.8725  165.9106 C.3     1  UNL1        0.0950
      4 C         141.7854  142.1965  164.7507 C.3     1  UNL1        0.0375
      5 C         143.1982  142.6384  164.9932 C.3     1  UNL1        0.0610
      6 C         143.7169  142.7562  166.3956 C.3     1  UNL1        0.0375
      7 C         142.8228  142.4322  167.5556 C.3     1  UNL1        0.0950
      8 N         137.9650  139.5207  170.4618 N.pl3   1  UNL1       -0.3277
      9 C         138.9324  140.5312  169.9204 C.ar    1  UNL1        0.2131
     10 N         139.3478  141.8043  170.5962 N.ar    1  UNL1       -0.1121
     11 N         140.3265  142.5059  169.7017 N.ar    1  UNL1       -0.1117
     12 C         140.5159  141.6663  168.4732 C.ar    1  UNL1        0.2194
     13 N         139.6544  140.4459  168.6084 N.ar    1  UNL1       -0.2979
     14 H         137.5398  139.6663  171.3377 H       1  UNL1        0.1451
     15 H         137.7552  138.7119  169.9411 H       1  UNL1        0.1451
     16 H         139.5764  139.7169  167.9513 H       1  UNL1        0.1713
     17 C         145.0772  141.9451  163.3383 C.3     1  UNL1        0.0768
     18 C         145.2744  140.6634  164.0922 C.3     1  UNL1        0.0437
     19 C         144.1572  139.6664  164.1818 C.ar    1  UNL1       -0.0207
     20 C         143.4377  139.2327  162.9391 C.ar    1  UNL1       -0.0034
     21 C         142.3206  138.2357  163.0287 C.ar    1  UNL1        0.0111
     22 C         141.9229  137.6725  164.3609 C.ar    1  UNL1        0.0577
     23 CL        140.8058  136.6755  164.4504 Cl      1  UNL1       -0.0822
     24 C         142.6425  138.1062  165.6035 C.ar    1  UNL1        0.0111
     25 C         143.7596  139.1032  165.5139 C.ar    1  UNL1       -0.0034
     26 C         144.0013  144.3038  163.1679 C.3     1  UNL1        0.1019
     27 C         142.7586  144.6877  162.4207 C.3     1  UNL1        0.1311
     28 C         141.6378  145.3821  163.1360 C.3     1  UNL1        0.0311
     29 C         140.3951  145.7661  162.3888 C.3     1  UNL1        0.0051
     30 C         140.2732  145.4556  160.9264 C.3     1  UNL1        0.0322
     31 C         141.3940  144.7612  160.2111 C.3     1  UNL1        0.1421
     32 O         142.6367  144.3772  160.9583 O.3     1  UNL1       -0.3548
@<TRIPOS>BOND
     1     8     9    1
     2     9    10   ar
     3    10    11   ar
     4    11    12   ar
     5    12     2    1
     6     2     3    1
     7     3     4    1
     8     4     5    1
     9     5     1    1
    10     1    17    1
    11    17    18    1
    12    18    19    1
    13    19    20   ar
    14    20    21   ar
    15    21    22   ar
    16    22    23    1
    17    22    24   ar
    18    24    25   ar
    19     1    26    1
    20    26    27    1
    21    27    28    1
    22    28    29    1
    23    29    30    1
    24    30    31    1
    25    31    32    1
    26     5     6    1
    27     6     7    1
    28    12    13   ar
    29    13     9   ar
    30     7     2    1
    31    25    19   ar
    32    32    27    1
    33     8    14    1
    34     8    15    1
    35    13    16    1
@<TRIPOS>MOLECULE
*****
 32 35 0 0 0
SMALL
GASTEIGER

@<TRIPOS>ATOM
      1 N         138.6466  139.3997  164.1928 N.3     1  UNL1       -0.2715
      2 N         140.4647  141.1110  167.9365 N.pl3   1  UNL1       -0.2784
      3 C         139.4516  140.0088  168.0309 C.3     1  UNL1        0.0950
      4 C         138.8456  139.4384  166.7830 C.3     1  UNL1        0.0375
      5 C         139.2526  139.9701  165.4407 C.3     1  UNL1        0.0610
      6 C         140.2657  141.0723  165.3464 C.3     1  UNL1        0.0375
      7 C         140.8717  141.6427  166.5943 C.3     1  UNL1        0.0950
      8 N         143.4729  143.9609  171.2091 N.pl3   1  UNL1       -0.3277
      9 C         142.4535  142.9914  170.6887 C.ar    1  UNL1        0.2131
     10 N         141.5532  142.1271  171.5210 N.ar    1  UNL1       -0.1121
     11 N         140.6987  141.3176  170.5913 N.ar    1  UNL1       -0.1117
     12 C         141.0708  141.6815  169.1845 C.ar    1  UNL1        0.2194
     13 N         142.1553  142.7159  169.2447 N.ar    1  UNL1       -0.2979
     14 H         143.5960  144.0722  172.1795 H       1  UNL1        0.1451
     15 H         144.0190  144.4859  170.5803 H       1  UNL1        0.1451
     16 H         142.5943  143.1397  168.4721 H       1  UNL1        0.1713
     17 C         138.8814  137.9622  163.8343 C.3     1  UNL1        0.0768
     18 C         140.1217  137.5683  163.0882 C.3     1  UNL1        0.0437
     19 C         141.4176  138.2719  163.3630 C.ar    1  UNL1       -0.0207
     20 C         142.1586  138.0072  164.6401 C.ar    1  UNL1       -0.0034
     21 C         143.4545  138.7108  164.9149 C.ar    1  UNL1        0.0111
     22 C         144.0095  139.6791  163.9127 C.ar    1  UNL1        0.0577
     23 CL        145.3053  140.3827  164.1875 Cl      1  UNL1       -0.0822
     24 C         143.2685  139.9438  162.6356 C.ar    1  UNL1        0.0111
     25 C         141.9725  139.2401  162.3608 C.ar    1  UNL1       -0.0034
     26 C         137.8056  140.2667  163.3034 C.3     1  UNL1        0.1019
     27 C         138.2326  141.6736  163.0063 C.3     1  UNL1        0.1311
     28 C         137.5242  142.8253  163.6558 C.3     1  UNL1        0.0311
     29 C         137.9512  144.2323  163.3588 C.3     1  UNL1        0.0051
     30 C         139.0864  144.4875  162.4122 C.3     1  UNL1        0.0322
     31 C         139.7948  143.3359  161.7627 C.3     1  UNL1        0.1421
     32 O         139.3678  141.9289  162.0597 O.3     1  UNL1       -0.3548
@<TRIPOS>BOND
     1     8     9    1
     2     9    10   ar
     3    10    11   ar
     4    11    12   ar
     5    12     2    1
     6     2     3    1
     7     3     4    1
     8     4     5    1
     9     5     1    1
    10     1    17    1
    11    17    18    1
    12    18    19    1
    13    19    20   ar
    14    20    21   ar
    15    21    22   ar
    16    22    23    1
    17    22    24   ar
    18    24    25   ar
    19     1    26    1
    20    26    27    1
    21    27    28    1
    22    28    29    1
    23    29    30    1
    24    30    31    1
    25    31    32    1
    26     5     6    1
    27     6     7    1
    28    12    13   ar
    29    13     9   ar
    30     7     2    1
    31    25    19   ar
    32    32    27    1
    33     8    14    1
    34     8    15    1
    35    13    16    1
@<TRIPOS>MOLECULE
*****
 32 35 0 0 0
SMALL
GASTEIGER

@<TRIPOS>ATOM
      1 N         138.2344  139.7124  163.3893 N.3     1  UNL1       -0.2715
      2 N         139.6283  140.4512  167.6037 N.pl3   1  UNL1       -0.2784
      3 C         138.6010  139.3935  167.3281 C.3     1  UNL1        0.0950
      4 C         138.1364  139.1472  165.9233 C.3     1  UNL1        0.0375
      5 C         138.6991  139.9587  164.7941 C.3     1  UNL1        0.0610
      6 C         139.7263  141.0164  165.0697 C.3     1  UNL1        0.0375
      7 C         140.1909  141.2626  166.4745 C.3     1  UNL1        0.0950
      8 N         142.2327  142.4009  171.7626 N.pl3   1  UNL1       -0.3277
      9 C         141.2900  141.5936  170.9202 C.ar    1  UNL1        0.2131
     10 N         140.3257  140.5592  171.4205 N.ar    1  UNL1       -0.1121
     11 N         139.5859  140.0054  170.2390 N.ar    1  UNL1       -0.1117
     12 C         140.0929  140.6975  169.0085 C.ar    1  UNL1        0.2194
     13 N         141.1461  141.6791  169.4295 N.ar    1  UNL1       -0.2979
     14 H         142.2539  142.2724  172.7385 H       1  UNL1        0.1451
     15 H         142.8302  143.0592  171.3397 H       1  UNL1        0.1451
     16 H         141.6538  142.2748  168.8324 H       1  UNL1        0.1713
     17 C         138.4992  138.3900  162.7327 C.3     1  UNL1        0.0768
     18 C         139.5667  137.4849  163.2726 C.3     1  UNL1        0.0437
     19 C         140.9473  138.0172  163.5188 C.ar    1  UNL1       -0.0207
     20 C         141.5970  137.8265  164.8572 C.ar    1  UNL1       -0.0034
     21 C         142.9776  138.3587  165.1034 C.ar    1  UNL1        0.0111
     22 C         143.7086  139.0817  164.0111 C.ar    1  UNL1        0.0577
     23 CL        145.0891  139.6139  164.2573 Cl      1  UNL1       -0.0822
     24 C         143.0588  139.2724  162.6726 C.ar    1  UNL1        0.0111
     25 C         141.6782  138.7401  162.4265 C.ar    1  UNL1       -0.0034
     26 C         137.5050  140.7886  162.6410 C.3     1  UNL1        0.1019
     27 C         138.1557  142.1220  162.4211 C.3     1  UNL1        0.1311
     28 C         139.3489  142.2346  161.5189 C.3     1  UNL1        0.0311
     29 C         139.9996  143.5681  161.2989 C.3     1  UNL1        0.0051
     30 C         139.4572  144.7890  161.9810 C.3     1  UNL1        0.0322
     31 C         138.2641  144.6764  162.8831 C.3     1  UNL1        0.1421
     32 O         137.6134  143.3429  163.1032 O.3     1  UNL1       -0.3548
@<TRIPOS>BOND
     1     8     9    1
     2     9    10   ar
     3    10    11   ar
     4    11    12   ar
     5    12     2    1
     6     2     3    1
     7     3     4    1
     8     4     5    1
     9     5     1    1
    10     1    17    1
    11    17    18    1
    12    18    19    1
    13    19    20   ar
    14    20    21   ar
    15    21    22   ar
    16    22    23    1
    17    22    24   ar
    18    24    25   ar
    19     1    26    1
    20    26    27    1
    21    27    28    1
    22    28    29    1
    23    29    30    1
    24    30    31    1
    25    31    32    1
    26     5     6    1
    27     6     7    1
    28    12    13   ar
    29    13     9   ar
    30     7     2    1
    31    25    19   ar
    32    32    27    1
    33     8    14    1
    34     8    15    1
    35    13    16    1
@<TRIPOS>MOLECULE
*****
 32 35 0 0 0
SMALL
GASTEIGER

@<TRIPOS>ATOM
      1 N         138.9186  138.9575  163.1376 N.3     1  UNL1       -0.2715
      2 N         139.8737  140.0920  167.3862 N.pl3   1  UNL1       -0.2784
      3 C         138.7173  139.1823  167.0948 C.3     1  UNL1        0.0950
      4 C         138.3989  138.8041  165.6786 C.3     1  UNL1        0.0375
      5 C         139.2370  139.3357  164.5539 C.3     1  UNL1        0.0610
      6 C         140.3935  140.2454  164.8453 C.3     1  UNL1        0.0375
      7 C         140.7118  140.6235  166.2615 C.3     1  UNL1        0.0950
      8 N         142.1025  142.3716  171.5954 N.pl3   1  UNL1       -0.3277
      9 C         141.2166  141.5180  170.7372 C.ar    1  UNL1        0.2131
     10 N         140.1476  140.5862  171.2264 N.ar    1  UNL1       -0.1121
     11 N         139.5145  139.9387  170.0306 N.ar    1  UNL1       -0.1117
     12 C         140.1922  140.4702  168.8025 C.ar    1  UNL1        0.2194
     13 N         141.2441  141.4462  169.2392 N.ar    1  UNL1       -0.2979
     14 H         142.0080  142.3496  172.5752 H       1  UNL1        0.1451
     15 H         142.7784  142.9538  171.1790 H       1  UNL1        0.1451
     16 H         141.8468  141.9511  168.6466 H       1  UNL1        0.1713
     17 C         137.8862  139.7282  162.3696 C.3     1  UNL1        0.0768
     18 C         137.3062  140.9857  162.9462 C.3     1  UNL1        0.0437
     19 C         137.9943  142.2998  162.7235 C.ar    1  UNL1       -0.0207
     20 C         137.8861  143.3868  163.7515 C.ar    1  UNL1       -0.0034
     21 C         138.5742  144.7009  163.5288 C.ar    1  UNL1        0.0111
     22 C         139.3706  144.9280  162.2780 C.ar    1  UNL1        0.0577
     23 CL        140.0587  146.2421  162.0553 Cl      1  UNL1       -0.0822
     24 C         139.4788  143.8411  161.2501 C.ar    1  UNL1        0.0111
     25 C         138.7906  142.5269  161.4728 C.ar    1  UNL1       -0.0034
     26 C         139.6327  137.8085  162.4895 C.3     1  UNL1        0.1019
     27 C         140.9663  138.0257  161.8382 C.3     1  UNL1        0.1311
     28 C         142.2241  137.9085  162.6471 C.3     1  UNL1        0.0311
     29 C         143.5577  138.1257  161.9957 C.3     1  UNL1        0.0051
     30 C         143.6336  138.4599  160.5354 C.3     1  UNL1        0.0322
     31 C         142.3759  138.5770  159.7265 C.3     1  UNL1        0.1421
     32 O         141.0422  138.3599  160.3779 O.3     1  UNL1       -0.3548
@<TRIPOS>BOND
     1     8     9    1
     2     9    10   ar
     3    10    11   ar
     4    11    12   ar
     5    12     2    1
     6     2     3    1
     7     3     4    1
     8     4     5    1
     9     5     1    1
    10     1    17    1
    11    17    18    1
    12    18    19    1
    13    19    20   ar
    14    20    21   ar
    15    21    22   ar
    16    22    23    1
    17    22    24   ar
    18    24    25   ar
    19     1    26    1
    20    26    27    1
    21    27    28    1
    22    28    29    1
    23    29    30    1
    24    30    31    1
    25    31    32    1
    26     5     6    1
    27     6     7    1
    28    12    13   ar
    29    13     9   ar
    30     7     2    1
    31    25    19   ar
    32    32    27    1
    33     8    14    1
    34     8    15    1
    35    13    16    1
@<TRIPOS>MOLECULE
*****
 32 35 0 0 0
SMALL
GASTEIGER

@<TRIPOS>ATOM
      1 N         139.5281  139.9339  166.6953 N.3     1  UNL1       -0.2715
      2 N         139.8809  143.0424  163.4607 N.pl3   1  UNL1       -0.2784
      3 C         138.5285  142.5520  163.8852 C.3     1  UNL1        0.0950
      4 C         138.4109  141.5159  164.9634 C.3     1  UNL1        0.0375
      5 C         139.6457  140.9701  165.6170 C.3     1  UNL1        0.0610
      6 C         140.9982  141.4605  165.1925 C.3     1  UNL1        0.0375
      7 C         141.1158  142.4966  164.1143 C.3     1  UNL1        0.0950
      8 N         141.6449  145.8025  159.3192 N.pl3   1  UNL1       -0.3277
      9 C         140.8094  145.3472  160.4788 C.ar    1  UNL1        0.2131
     10 N         139.5498  145.9989  160.9676 N.ar    1  UNL1       -0.1121
     11 N         139.0488  145.2148  162.1441 N.ar    1  UNL1       -0.1117
     12 C         139.9986  144.0786  162.3824 C.ar    1  UNL1        0.2194
     13 N         141.0867  144.1604  161.3532 N.ar    1  UNL1       -0.2979
     14 H         141.3792  146.5977  158.8032 H       1  UNL1        0.1451
     15 H         142.4590  145.3060  159.0741 H       1  UNL1        0.1451
     16 H         141.8491  143.5435  161.2668 H       1  UNL1        0.1713
     17 C         138.3679  138.9833  166.6985 C.3     1  UNL1        0.0768
     18 C         138.3713  137.7926  165.7861 C.3     1  UNL1        0.0437
     19 C         139.2429  137.7857  164.5653 C.ar    1  UNL1       -0.0207
     20 C         140.6889  137.4032  164.6784 C.ar    1  UNL1       -0.0034
     21 C         141.5605  137.3963  163.4576 C.ar    1  UNL1        0.0111
     22 C         140.9861  137.7719  162.1238 C.ar    1  UNL1        0.0577
     23 CL        141.8577  137.7650  160.9031 Cl      1  UNL1       -0.0822
     24 C         139.5401  138.1544  162.0108 C.ar    1  UNL1        0.0111
     25 C         138.6685  138.1613  163.2316 C.ar    1  UNL1       -0.0034
     26 C         140.5707  139.8485  167.7703 C.3     1  UNL1        0.1019
     27 C         140.9236  141.0666  168.5714 C.3     1  UNL1        0.1311
     28 C         139.8386  141.9000  169.1865 C.3     1  UNL1        0.0311
     29 C         140.1915  143.1181  169.9875 C.3     1  UNL1        0.0051
     30 C         141.6293  143.5028  170.1735 C.3     1  UNL1        0.0322
     31 C         142.7143  142.6694  169.5584 C.3     1  UNL1        0.1421
     32 O         142.3614  141.4513  168.7574 O.3     1  UNL1       -0.3548
@<TRIPOS>BOND
     1     8     9    1
     2     9    10   ar
     3    10    11   ar
     4    11    12   ar
     5    12     2    1
     6     2     3    1
     7     3     4    1
     8     4     5    1
     9     5     1    1
    10     1    17    1
    11    17    18    1
    12    18    19    1
    13    19    20   ar
    14    20    21   ar
    15    21    22   ar
    16    22    23    1
    17    22    24   ar
    18    24    25   ar
    19     1    26    1
    20    26    27    1
    21    27    28    1
    22    28    29    1
    23    29    30    1
    24    30    31    1
    25    31    32    1
    26     5     6    1
    27     6     7    1
    28    12    13   ar
    29    13     9   ar
    30     7     2    1
    31    25    19   ar
    32    32    27    1
    33     8    14    1
    34     8    15    1
    35    13    16    1
@<TRIPOS>MOLECULE
*****
 32 35 0 0 0
SMALL
GASTEIGER

@<TRIPOS>ATOM
      1 N         139.1737  142.9192  164.7155 N.3     1  UNL1       -0.2715
      2 N         140.5530  144.5322  160.7474 N.pl3   1  UNL1       -0.2784
      3 C         140.9818  143.1651  161.1912 C.3     1  UNL1        0.0950
      4 C         140.5220  142.6274  162.5138 C.3     1  UNL1        0.0375
      5 C         139.6335  143.4569  163.3927 C.3     1  UNL1        0.0610
      6 C         139.2047  144.8241  162.9490 C.3     1  UNL1        0.0375
      7 C         139.6645  145.3617  161.6263 C.3     1  UNL1        0.0950
      8 N         140.5886  146.8932  156.0245 N.pl3   1  UNL1       -0.3277
      9 C         141.0291  146.1552  157.2538 C.ar    1  UNL1        0.2131
     10 N         142.4115  145.6397  157.5248 N.ar    1  UNL1       -0.1121
     11 N         142.4014  144.9690  158.8664 N.ar    1  UNL1       -0.1117
     12 C         141.0128  145.0700  159.4247 C.ar    1  UNL1        0.2194
     13 N         140.1647  145.8031  158.4280 N.ar    1  UNL1       -0.2979
     14 H         141.2333  147.0780  155.3038 H       1  UNL1        0.1451
     15 H         139.6547  147.1928  155.9384 H       1  UNL1        0.1451
     16 H         139.2086  146.0158  158.5272 H       1  UNL1        0.1713
     17 C         139.8104  143.4035  165.9842 C.3     1  UNL1        0.0768
     18 C         140.6587  142.4736  166.8003 C.3     1  UNL1        0.0437
     19 C         141.7660  141.7008  166.1472 C.ar    1  UNL1       -0.0207
     20 C         141.7627  140.2015  166.1932 C.ar    1  UNL1       -0.0034
     21 C         142.8700  139.4287  165.5402 C.ar    1  UNL1        0.0111
     22 C         143.9807  140.1551  164.8410 C.ar    1  UNL1        0.0577
     23 CL        145.0880  139.3823  164.1879 Cl      1  UNL1       -0.0822
     24 C         143.9840  141.6544  164.7950 C.ar    1  UNL1        0.0111
     25 C         142.8766  142.4272  165.4481 C.ar    1  UNL1       -0.0034
     26 C         138.0772  141.8971  164.7693 C.3     1  UNL1        0.1019
     27 C         138.4149  140.4362  164.8106 C.3     1  UNL1        0.1311
     28 C         138.0661  139.6196  166.0195 C.3     1  UNL1        0.0311
     29 C         138.4038  138.1587  166.0608 C.3     1  UNL1        0.0051
     30 C         139.0905  137.5144  164.8932 C.3     1  UNL1        0.0322
     31 C         139.4394  138.3309  163.6843 C.3     1  UNL1        0.1421
     32 O         139.1016  139.7919  163.6429 O.3     1  UNL1       -0.3548
@<TRIPOS>BOND
     1     8     9    1
     2     9    10   ar
     3    10    11   ar
     4    11    12   ar
     5    12     2    1
     6     2     3    1
     7     3     4    1
     8     4     5    1
     9     5     1    1
    10     1    17    1
    11    17    18    1
    12    18    19    1
    13    19    20   ar
    14    20    21   ar
    15    21    22   ar
    16    22    23    1
    17    22    24   ar
    18    24    25   ar
    19     1    26    1
    20    26    27    1
    21    27    28    1
    22    28    29    1
    23    29    30    1
    24    30    31    1
    25    31    32    1
    26     5     6    1
    27     6     7    1
    28    12    13   ar
    29    13     9   ar
    30     7     2    1
    31    25    19   ar
    32    32    27    1
    33     8    14    1
    34     8    15    1
    35    13    16    1
@<TRIPOS>MOLECULE
*****
 32 35 0 0 0
SMALL
GASTEIGER

@<TRIPOS>ATOM
      1 N         138.7929  143.5268  163.4287 N.3     1  UNL1       -0.2715
      2 N         140.2223  141.4155  167.1367 N.pl3   1  UNL1       -0.2784
      3 C         139.6233  140.6282  166.0092 C.3     1  UNL1        0.0950
      4 C         139.1468  141.3320  164.7732 C.3     1  UNL1        0.0375
      5 C         139.2694  142.8230  164.6648 C.3     1  UNL1        0.0610
      6 C         139.8683  143.6103  165.7923 C.3     1  UNL1        0.0375
      7 C         140.3448  142.9065  167.0282 C.3     1  UNL1        0.0950
      8 N         143.3364  139.5805  170.9858 N.pl3   1  UNL1       -0.3277
      9 C         142.1301  139.8683  170.1420 C.ar    1  UNL1        0.2131
     10 N         140.7337  139.3893  170.4076 N.ar    1  UNL1       -0.1121
     11 N         139.8491  139.9106  169.3141 N.ar    1  UNL1       -0.1117
     12 C         140.6988  140.7117  168.3727 C.ar    1  UNL1        0.2194
     13 N         142.1085  140.6856  168.8844 N.ar    1  UNL1       -0.2979
     14 H         143.2493  139.0306  171.7978 H       1  UNL1        0.1451
     15 H         144.2153  139.9414  170.7277 H       1  UNL1        0.1451
     16 H         142.8836  141.1273  168.4679 H       1  UNL1        0.1713
     17 C         139.1809  144.9545  163.1818 C.3     1  UNL1        0.0768
     18 C         140.4272  145.2701  162.4089 C.3     1  UNL1        0.0437
     19 C         141.6929  144.5143  162.6856 C.ar    1  UNL1       -0.0207
     20 C         142.6234  144.9797  163.7661 C.ar    1  UNL1       -0.0034
     21 C         143.8891  144.2239  164.0428 C.ar    1  UNL1        0.0111
     22 C         144.2244  143.0026  163.2390 C.ar    1  UNL1        0.0577
     23 CL        145.4902  142.2468  163.5157 Cl      1  UNL1       -0.0822
     24 C         143.2940  142.5372  162.1584 C.ar    1  UNL1        0.0111
     25 C         142.0282  143.2931  161.8817 C.ar    1  UNL1       -0.0034
     26 C         137.9283  142.8027  162.4396 C.3     1  UNL1        0.1019
     27 C         138.5155  142.3084  161.1509 C.3     1  UNL1        0.1311
     28 C         139.2281  140.9891  161.1087 C.3     1  UNL1        0.0311
     29 C         139.8153  140.4947  159.8200 C.3     1  UNL1        0.0051
     30 C         139.6898  141.3196  158.5734 C.3     1  UNL1        0.0322
     31 C         138.9772  142.6388  158.6156 C.3     1  UNL1        0.1421
     32 O         138.3900  143.1332  159.9043 O.3     1  UNL1       -0.3548
@<TRIPOS>BOND
     1     8     9    1
     2     9    10   ar
     3    10    11   ar
     4    11    12   ar
     5    12     2    1
     6     2     3    1
     7     3     4    1
     8     4     5    1
     9     5     1    1
    10     1    17    1
    11    17    18    1
    12    18    19    1
    13    19    20   ar
    14    20    21   ar
    15    21    22   ar
    16    22    23    1
    17    22    24   ar
    18    24    25   ar
    19     1    26    1
    20    26    27    1
    21    27    28    1
    22    28    29    1
    23    29    30    1
    24    30    31    1
    25    31    32    1
    26     5     6    1
    27     6     7    1
    28    12    13   ar
    29    13     9   ar
    30     7     2    1
    31    25    19   ar
    32    32    27    1
    33     8    14    1
    34     8    15    1
    35    13    16    1
@<TRIPOS>MOLECULE
*****
 32 35 0 0 0
SMALL
GASTEIGER

@<TRIPOS>ATOM
      1 N         139.0638  142.9557  164.2739 N.3     1  UNL1       -0.2715
      2 N         140.4045  144.7117  160.3537 N.pl3   1  UNL1       -0.2784
      3 C         140.3322  143.2231  160.5230 C.3     1  UNL1        0.0950
      4 C         139.8853  142.6378  161.8297 C.3     1  UNL1        0.0375
      5 C         139.5107  143.5411  162.9672 C.3     1  UNL1        0.0610
      6 C         139.5831  145.0297  162.7979 C.3     1  UNL1        0.0375
      7 C         140.0300  145.6150  161.4911 C.3     1  UNL1        0.0950
      8 N         140.3646  147.1132  155.6513 N.pl3   1  UNL1       -0.3277
      9 C         140.8331  146.4009  156.8855 C.ar    1  UNL1        0.2131
     10 N         142.2454  145.9949  157.1866 N.ar    1  UNL1       -0.1121
     11 N         142.2567  145.3127  158.5224 N.ar    1  UNL1       -0.1117
     12 C         140.8515  145.2971  159.0469 C.ar    1  UNL1        0.2194
     13 N         139.9717  145.9697  158.0352 N.ar    1  UNL1       -0.2979
     14 H         141.0096  147.3558  154.9481 H       1  UNL1        0.1451
     15 H         139.4121  147.3380  155.5443 H       1  UNL1        0.1451
     16 H         138.9995  146.1044  158.1122 H       1  UNL1        0.1713
     17 C         139.7321  143.3729  165.5503 C.3     1  UNL1        0.0768
     18 C         141.1436  142.9498  165.8310 C.3     1  UNL1        0.0437
     19 C         141.4225  141.9208  166.8861 C.ar    1  UNL1       -0.0207
     20 C         142.4220  140.8328  166.6271 C.ar    1  UNL1       -0.0034
     21 C         142.7009  139.8038  167.6822 C.ar    1  UNL1        0.0111
     22 C         141.9801  139.8627  168.9964 C.ar    1  UNL1        0.0577
     23 CL        142.2589  138.8337  170.0515 Cl      1  UNL1       -0.0822
     24 C         140.9805  140.9507  169.2554 C.ar    1  UNL1        0.0111
     25 C         140.7017  141.9797  168.2002 C.ar    1  UNL1       -0.0034
     26 C         137.9485  141.9530  164.3043 C.3     1  UNL1        0.1019
     27 C         138.2487  140.5046  164.5527 C.3     1  UNL1        0.1311
     28 C         138.2360  139.9653  165.9524 C.3     1  UNL1        0.0311
     29 C         138.5362  138.5168  166.2008 C.3     1  UNL1        0.0051
     30 C         138.8492  137.6075  165.0495 C.3     1  UNL1        0.0322
     31 C         138.8619  138.1468  163.6499 C.3     1  UNL1        0.1421
     32 O         138.5617  139.5953  163.4014 O.3     1  UNL1       -0.3548
@<TRIPOS>BOND
     1     8     9    1
     2     9    10   ar
     3    10    11   ar
     4    11    12   ar
     5    12     2    1
     6     2     3    1
     7     3     4    1
     8     4     5    1
     9     5     1    1
    10     1    17    1
    11    17    18    1
    12    18    19    1
    13    19    20   ar
    14    20    21   ar
    15    21    22   ar
    16    22    23    1
    17    22    24   ar
    18    24    25   ar
    19     1    26    1
    20    26    27    1
    21    27    28    1
    22    28    29    1
    23    29    30    1
    24    30    31    1
    25    31    32    1
    26     5     6    1
    27     6     7    1
    28    12    13   ar
    29    13     9   ar
    30     7     2    1
    31    25    19   ar
    32    32    27    1
    33     8    14    1
    34     8    15    1
    35    13    16    1
@<TRIPOS>MOLECULE
*****
 32 35 0 0 0
SMALL
GASTEIGER

@<TRIPOS>ATOM
      1 N         143.0098  141.0852  165.6388 N.3     1  UNL1       -0.2715
      2 N         141.7181  143.4608  162.0419 N.pl3   1  UNL1       -0.2784
      3 C         143.1687  143.3994  162.4186 C.3     1  UNL1        0.0950
      4 C         143.5992  142.6075  163.6175 C.3     1  UNL1        0.0375
      5 C         142.5792  141.8771  164.4398 C.3     1  UNL1        0.0610
      6 C         141.1286  141.9386  164.0630 C.3     1  UNL1        0.0375
      7 C         140.6981  142.7304  162.8641 C.3     1  UNL1        0.0950
      8 N         141.8241  146.1775  157.5153 N.pl3   1  UNL1       -0.3277
      9 C         141.3362  145.5014  158.7623 C.ar    1  UNL1        0.2131
     10 N         139.9134  145.4412  159.2335 N.ar    1  UNL1       -0.1121
     11 N         139.8833  144.6695  160.5194 N.ar    1  UNL1       -0.1117
     12 C         141.2875  144.2527  160.8429 C.ar    1  UNL1        0.2194
     13 N         142.1854  144.7669  159.7569 N.ar    1  UNL1       -0.2979
     14 H         141.1861  146.6362  156.9222 H       1  UNL1        0.1451
     15 H         142.7824  146.1625  157.2900 H       1  UNL1        0.1451
     16 H         143.1609  144.6439  159.7059 H       1  UNL1        0.1713
     17 C         143.5062  139.6798  165.4705 C.3     1  UNL1        0.0768
     18 C         142.5636  138.5257  165.6426 C.3     1  UNL1        0.0437
     19 C         141.4099  138.3527  164.6997 C.ar    1  UNL1       -0.0207
     20 C         140.0032  138.4103  165.2173 C.ar    1  UNL1       -0.0034
     21 C         138.8495  138.2373  164.2744 C.ar    1  UNL1        0.0111
     22 C         139.1024  138.0067  162.8140 C.ar    1  UNL1        0.0577
     23 CL        137.9487  137.8337  161.8711 Cl      1  UNL1       -0.0822
     24 C         140.5091  137.9490  162.2964 C.ar    1  UNL1        0.0111
     25 C         141.6629  138.1220  163.2394 C.ar    1  UNL1       -0.0034
     26 C         142.9439  141.6988  167.0059 C.3     1  UNL1        0.1019
     27 C         141.9818  141.1615  168.0236 C.3     1  UNL1        0.1311
     28 C         140.5431  140.9483  167.6564 C.3     1  UNL1        0.0311
     29 C         139.5810  140.4110  168.6740 C.3     1  UNL1        0.0051
     30 C         140.0575  140.0869  170.0589 C.3     1  UNL1        0.0322
     31 C         141.4961  140.3000  170.4261 C.3     1  UNL1        0.1421
     32 O         142.4583  140.8373  169.4084 O.3     1  UNL1       -0.3548
@<TRIPOS>BOND
     1     8     9    1
     2     9    10   ar
     3    10    11   ar
     4    11    12   ar
     5    12     2    1
     6     2     3    1
     7     3     4    1
     8     4     5    1
     9     5     1    1
    10     1    17    1
    11    17    18    1
    12    18    19    1
    13    19    20   ar
    14    20    21   ar
    15    21    22   ar
    16    22    23    1
    17    22    24   ar
    18    24    25   ar
    19     1    26    1
    20    26    27    1
    21    27    28    1
    22    28    29    1
    23    29    30    1
    24    30    31    1
    25    31    32    1
    26     5     6    1
    27     6     7    1
    28    12    13   ar
    29    13     9   ar
    30     7     2    1
    31    25    19   ar
    32    32    27    1
    33     8    14    1
    34     8    15    1
    35    13    16    1
