@<TRIPOS>MOLECULE
*****
 36 39 0 0 0
SMALL
GASTEIGER

@<TRIPOS>ATOM
      1 C         139.6513  139.3538  165.5317 C.ar    1  UNL1        0.0154
      2 C         139.2245  137.9387  165.2757 C.ar    1  UNL1        0.0985
      3 N         138.8725  137.5016  163.8847 N.ar    1  UNL1       -0.2423
      4 C         138.9472  138.4795  162.7497 C.ar    1  UNL1        0.0985
      5 C         139.3740  139.8945  163.0057 C.ar    1  UNL1        0.0152
      6 C         139.7260  140.3316  164.3968 C.ar    1  UNL1       -0.0188
      7 C         140.1528  141.7467  164.6529 C.3     1  UNL1        0.0311
      8 C         141.7727  140.5843  168.6519 C.ar    1  UNL1        0.1452
      9 C         141.4206  140.1472  167.2609 C.ar    1  UNL1        0.0372
     10 C         140.0033  139.7909  166.9228 C.ar    1  UNL1        0.0064
     11 C         138.9381  139.8717  167.9758 C.ar    1  UNL1        0.0300
     12 C         139.2902  140.3088  169.3668 C.ar    1  UNL1        0.1474
     13 F         138.2249  140.3896  170.4198 F       1  UNL1       -0.2039
     14 C         140.7075  140.6651  169.7048 C.ar    1  UNL1        0.1144
     15 C         141.0595  141.1023  171.0959 C.2     1  UNL1        0.2479
     16 N         142.2169  140.4698  171.8105 N.am    1  UNL1       -0.3252
     17 O         140.2543  142.1718  171.7724 O.2     1  UNL1       -0.2702
     18 H         142.7454  139.7678  171.3665 H       1  UNL1        0.1453
     19 H         142.4480  140.7567  172.7235 H       1  UNL1        0.1453
     20 C         143.6207  142.3775  168.9975 C.3     1  UNL1        0.2525
     21 O         143.1900  140.9407  168.9899 O.3     1  UNL1       -0.4712
     22 C         139.4487  140.8724  161.8708 C.ar    1  UNL1        0.0013
     23 C         138.2877  141.7774  161.5829 C.ar    1  UNL1        0.0013
     24 C         138.3624  142.7553  160.4479 C.ar    1  UNL1        0.0145
     25 C         139.5981  142.8282  159.6008 C.ar    1  UNL1        0.0479
     26 C         140.7592  141.9231  159.8888 C.ar    1  UNL1        0.0145
     27 C         140.6845  140.9452  161.0237 C.ar    1  UNL1        0.0013
     28 N         139.6729  143.8060  158.4659 N.pl3   1  UNL1       -0.3046
     29 C         139.1960  143.4082  157.1005 C.3     1  UNL1        0.1081
     30 C         139.2708  144.3861  155.9655 C.3     1  UNL1        0.0938
     31 N         139.8223  145.7618  156.1959 N.3     1  UNL1       -0.2711
     32 C         140.2992  146.1597  157.5614 C.3     1  UNL1        0.0938
     33 C         140.2244  145.1818  158.6963 C.3     1  UNL1        0.1081
     34 C         139.8971  146.7397  155.0610 C.3     1  UNL1        0.0577
     35 C         140.7444  146.4334  153.8616 C.3     1  UNL1        0.0173
     36 C         139.1245  148.0238  155.1253 C.3     1  UNL1        0.0173
@<TRIPOS>BOND
     1    20    21    1
     2    21     8    1
     3     8     9   ar
     4     9    10   ar
     5    10     1    1
     6     1     2   ar
     7     2     3   ar
     8     3     4   ar
     9     4     5   ar
    10     5    22    1
    11    22    23   ar
    12    23    24   ar
    13    24    25   ar
    14    25    28    1
    15    28    29    1
    16    29    30    1
    17    30    31    1
    18    31    34    1
    19    34    35    1
    20    34    36    1
    21    31    32    1
    22    32    33    1
    23    25    26   ar
    24    26    27   ar
    25     5     6   ar
    26     6     7    1
    27    10    11   ar
    28    11    12   ar
    29    12    13    1
    30    12    14   ar
    31    14    15    1
    32    15    16   am
    33    15    17    2
    34    14     8   ar
    35     6     1   ar
    36    27    22   ar
    37    33    28    1
    38    16    18    1
    39    16    19    1
@<TRIPOS>MOLECULE
*****
 36 39 0 0 0
SMALL
GASTEIGER

@<TRIPOS>ATOM
      1 C         141.0053  142.3913  165.1896 C.ar    1  UNL1        0.0154
      2 C         140.5338  143.7928  164.9379 C.ar    1  UNL1        0.0985
      3 N         140.1980  144.2321  163.5436 N.ar    1  UNL1       -0.2423
      4 C         140.3337  143.2699  162.4009 C.ar    1  UNL1        0.0985
      5 C         140.8052  141.8683  162.6526 C.ar    1  UNL1        0.0152
      6 C         141.1410  141.4290  164.0470 C.ar    1  UNL1       -0.0188
      7 C         141.6125  140.0275  164.2987 C.3     1  UNL1        0.0311
      8 C         140.7348  140.6201  168.7308 C.ar    1  UNL1        0.1452
      9 C         140.3991  141.0594  167.3365 C.ar    1  UNL1        0.0372
     10 C         141.3410  141.9520  166.5841 C.ar    1  UNL1        0.0064
     11 C         142.6186  142.4053  167.2260 C.ar    1  UNL1        0.0300
     12 C         142.9543  141.9660  168.6204 C.ar    1  UNL1        0.1474
     13 F         144.2320  142.4194  169.2625 F       1  UNL1       -0.2039
     14 C         142.0124  141.0734  169.3728 C.ar    1  UNL1        0.1144
     15 C         142.3482  140.6341  170.7672 C.2     1  UNL1        0.2479
     16 N         143.4512  139.6438  170.9964 N.am    1  UNL1       -0.3252
     17 O         141.5810  141.1852  171.9324 O.2     1  UNL1       -0.2702
     18 H         143.9548  139.2821  170.2317 H       1  UNL1        0.1453
     19 H         143.6716  139.3554  171.9116 H       1  UNL1        0.1453
     20 C         138.5690  140.3043  170.1305 C.3     1  UNL1        0.2525
     21 O         139.7929  139.7275  169.4832 O.3     1  UNL1       -0.4712
     22 C         140.9409  140.9061  161.5100 C.ar    1  UNL1        0.0013
     23 C         139.7794  140.0437  161.1138 C.ar    1  UNL1        0.0013
     24 C         139.9151  139.0814  159.9711 C.ar    1  UNL1        0.0145
     25 C         141.2123  138.9815  159.2247 C.ar    1  UNL1        0.0479
     26 C         142.3739  139.8440  159.6210 C.ar    1  UNL1        0.0145
     27 C         142.2382  140.8062  160.7636 C.ar    1  UNL1        0.0013
     28 N         141.3481  138.0193  158.0821 N.pl3   1  UNL1       -0.3046
     29 C         140.1968  137.7992  157.1461 C.3     1  UNL1        0.1081
     30 C         140.3325  136.8370  156.0034 C.3     1  UNL1        0.0938
     31 N         141.6195  136.0947  155.7968 N.3     1  UNL1       -0.2711
     32 C         142.7708  136.3148  156.7328 C.3     1  UNL1        0.0938
     33 C         142.6351  137.2771  157.8754 C.3     1  UNL1        0.1081
     34 C         141.7552  135.1325  154.6541 C.3     1  UNL1        0.0577
     35 C         141.7155  133.6548  154.9092 C.3     1  UNL1        0.0173
     36 C         141.9306  135.6478  153.2564 C.3     1  UNL1        0.0173
@<TRIPOS>BOND
     1    20    21    1
     2    21     8    1
     3     8     9   ar
     4     9    10   ar
     5    10     1    1
     6     1     2   ar
     7     2     3   ar
     8     3     4   ar
     9     4     5   ar
    10     5    22    1
    11    22    23   ar
    12    23    24   ar
    13    24    25   ar
    14    25    28    1
    15    28    29    1
    16    29    30    1
    17    30    31    1
    18    31    34    1
    19    34    35    1
    20    34    36    1
    21    31    32    1
    22    32    33    1
    23    25    26   ar
    24    26    27   ar
    25     5     6   ar
    26     6     7    1
    27    10    11   ar
    28    11    12   ar
    29    12    13    1
    30    12    14   ar
    31    14    15    1
    32    15    16   am
    33    15    17    2
    34    14     8   ar
    35     6     1   ar
    36    27    22   ar
    37    33    28    1
    38    16    18    1
    39    16    19    1
@<TRIPOS>MOLECULE
*****
 36 39 0 0 0
SMALL
GASTEIGER

@<TRIPOS>ATOM
      1 C         139.7124  139.4007  165.5816 C.ar    1  UNL1        0.0154
      2 C         139.2439  137.9957  165.3436 C.ar    1  UNL1        0.0985
      3 N         138.8464  137.5612  163.9641 N.ar    1  UNL1       -0.2423
      4 C         138.9175  138.5316  162.8224 C.ar    1  UNL1        0.0985
      5 C         139.3860  139.9365  163.0604 C.ar    1  UNL1        0.0152
      6 C         139.7835  140.3711  164.4400 C.ar    1  UNL1       -0.0188
      7 C         140.2520  141.7760  164.6779 C.3     1  UNL1        0.0311
      8 C         139.4822  140.3235  169.4346 C.ar    1  UNL1        0.1452
      9 C         139.0848  139.8890  168.0550 C.ar    1  UNL1        0.0372
     10 C         140.1099  139.8352  166.9612 C.ar    1  UNL1        0.0064
     11 C         141.5323  140.2159  167.2469 C.ar    1  UNL1        0.0300
     12 C         141.9297  140.6504  168.6265 C.ar    1  UNL1        0.1474
     13 F         143.3522  141.0312  168.9123 F       1  UNL1       -0.2039
     14 C         140.9046  140.7042  169.7203 C.ar    1  UNL1        0.1144
     15 C         141.3021  141.1387  171.0999 C.2     1  UNL1        0.2479
     16 N         142.4565  140.4761  171.7915 N.am    1  UNL1       -0.3252
     17 O         140.5452  142.2359  171.7879 O.2     1  UNL1       -0.2702
     18 H         142.9532  139.7559  171.3400 H       1  UNL1        0.1453
     19 H         142.7173  140.7612  172.6970 H       1  UNL1        0.1453
     20 C         137.2992  139.4239  170.5186 C.3     1  UNL1        0.2525
     21 O         138.4572  140.3773  170.5284 O.3     1  UNL1       -0.4712
     22 C         139.4571  140.9069  161.9188 C.ar    1  UNL1        0.0013
     23 C         140.6913  140.9764  161.0693 C.ar    1  UNL1        0.0013
     24 C         140.7625  141.9468  159.9277 C.ar    1  UNL1        0.0145
     25 C         139.5992  142.8477  159.6356 C.ar    1  UNL1        0.0479
     26 C         138.3649  142.7782  160.4851 C.ar    1  UNL1        0.0145
     27 C         138.2938  141.8078  161.6267 C.ar    1  UNL1        0.0013
     28 N         139.6703  143.8181  158.4940 N.pl3   1  UNL1       -0.3046
     29 C         140.2255  145.1942  158.7129 C.3     1  UNL1        0.1081
     30 C         140.2966  146.1647  157.5713 C.3     1  UNL1        0.0938
     31 N         139.8125  145.7590  156.2108 N.3     1  UNL1       -0.2711
     32 C         139.2572  144.3828  155.9919 C.3     1  UNL1        0.0938
     33 C         139.1862  143.4124  157.1335 C.3     1  UNL1        0.1081
     34 C         139.8835  146.7294  155.0692 C.3     1  UNL1        0.0577
     35 C         139.1557  148.0384  155.1512 C.3     1  UNL1        0.0173
     36 C         140.6825  146.3908  153.8457 C.3     1  UNL1        0.0173
@<TRIPOS>BOND
     1    20    21    1
     2    21     8    1
     3     8     9   ar
     4     9    10   ar
     5    10     1    1
     6     1     2   ar
     7     2     3   ar
     8     3     4   ar
     9     4     5   ar
    10     5    22    1
    11    22    23   ar
    12    23    24   ar
    13    24    25   ar
    14    25    28    1
    15    28    29    1
    16    29    30    1
    17    30    31    1
    18    31    34    1
    19    34    35    1
    20    34    36    1
    21    31    32    1
    22    32    33    1
    23    25    26   ar
    24    26    27   ar
    25     5     6   ar
    26     6     7    1
    27    10    11   ar
    28    11    12   ar
    29    12    13    1
    30    12    14   ar
    31    14    15    1
    32    15    16   am
    33    15    17    2
    34    14     8   ar
    35     6     1   ar
    36    27    22   ar
    37    33    28    1
    38    16    18    1
    39    16    19    1
@<TRIPOS>MOLECULE
*****
 36 39 0 0 0
SMALL
GASTEIGER

@<TRIPOS>ATOM
      1 C         139.8011  140.8078  165.4657 C.ar    1  UNL1        0.0154
      2 C         138.4244  140.2868  165.1770 C.ar    1  UNL1        0.0985
      3 N         138.0322  139.9434  163.7705 N.ar    1  UNL1       -0.2423
      4 C         139.0166  140.1209  162.6527 C.ar    1  UNL1        0.0985
      5 C         140.3933  140.6419  162.9415 C.ar    1  UNL1        0.0152
      6 C         140.7855  140.9853  164.3480 C.ar    1  UNL1       -0.0188
      7 C         142.1622  141.5063  164.6368 C.3     1  UNL1        0.0311
      8 C         141.0282  140.4132  169.2192 C.ar    1  UNL1        0.1452
      9 C         140.6360  140.0698  167.8127 C.ar    1  UNL1        0.0372
     10 C         140.1933  141.1512  166.8723 C.ar    1  UNL1        0.0064
     11 C         140.1427  142.5761  167.3383 C.ar    1  UNL1        0.0300
     12 C         140.5349  142.9195  168.7448 C.ar    1  UNL1        0.1474
     13 F         140.4844  144.3444  169.2109 F       1  UNL1       -0.2039
     14 C         140.9777  141.8380  169.6852 C.ar    1  UNL1        0.1144
     15 C         141.3699  142.1815  171.0918 C.2     1  UNL1        0.2479
     16 N         142.7333  142.7390  171.3753 N.am    1  UNL1       -0.3252
     17 O         140.3988  141.9673  172.2147 O.2     1  UNL1       -0.2702
     18 H         143.3707  142.8795  170.6382 H       1  UNL1        0.1453
     19 H         142.9907  142.9644  172.2984 H       1  UNL1        0.1453
     20 C         142.7536  138.5963  169.9064 C.3     1  UNL1        0.2525
     21 O         141.4710  139.3317  170.1596 O.3     1  UNL1       -0.4712
     22 C         141.3777  140.8194  161.8238 C.ar    1  UNL1        0.0013
     23 C         142.2930  139.6932  161.4446 C.ar    1  UNL1        0.0013
     24 C         143.2776  139.8706  160.3269 C.ar    1  UNL1        0.0145
     25 C         143.3467  141.1744  159.5883 C.ar    1  UNL1        0.0479
     26 C         142.4313  142.3006  159.9675 C.ar    1  UNL1        0.0145
     27 C         141.4469  142.1231  161.0852 C.ar    1  UNL1        0.0013
     28 N         144.3311  141.3519  158.4706 N.pl3   1  UNL1       -0.3046
     29 C         145.2963  142.4998  158.4965 C.3     1  UNL1        0.1081
     30 C         146.2808  142.6774  157.3788 C.3     1  UNL1        0.0938
     31 N         146.3001  141.7070  156.2351 N.3     1  UNL1       -0.2711
     32 C         145.3349  140.5590  156.2092 C.3     1  UNL1        0.0938
     33 C         144.3504  140.3815  157.3270 C.3     1  UNL1        0.1081
     34 C         147.2845  141.8845  155.1174 C.3     1  UNL1        0.0577
     35 C         146.7994  142.2032  153.7342 C.3     1  UNL1        0.0173
     36 C         148.7541  141.7433  155.3828 C.3     1  UNL1        0.0173
@<TRIPOS>BOND
     1    20    21    1
     2    21     8    1
     3     8     9   ar
     4     9    10   ar
     5    10     1    1
     6     1     2   ar
     7     2     3   ar
     8     3     4   ar
     9     4     5   ar
    10     5    22    1
    11    22    23   ar
    12    23    24   ar
    13    24    25   ar
    14    25    28    1
    15    28    29    1
    16    29    30    1
    17    30    31    1
    18    31    34    1
    19    34    35    1
    20    34    36    1
    21    31    32    1
    22    32    33    1
    23    25    26   ar
    24    26    27   ar
    25     5     6   ar
    26     6     7    1
    27    10    11   ar
    28    11    12   ar
    29    12    13    1
    30    12    14   ar
    31    14    15    1
    32    15    16   am
    33    15    17    2
    34    14     8   ar
    35     6     1   ar
    36    27    22   ar
    37    33    28    1
    38    16    18    1
    39    16    19    1
@<TRIPOS>MOLECULE
*****
 36 39 0 0 0
SMALL
GASTEIGER

@<TRIPOS>ATOM
      1 C         142.0048  140.2334  165.2667 C.ar    1  UNL1        0.0154
      2 C         142.6821  138.9104  165.0643 C.ar    1  UNL1        0.0985
      3 N         143.1035  138.4863  163.6886 N.ar    1  UNL1       -0.2423
      4 C         142.8476  139.3851  162.5153 C.ar    1  UNL1        0.0985
      5 C         142.1703  140.7081  162.7177 C.ar    1  UNL1        0.0152
      6 C         141.7489  141.1322  164.0934 C.ar    1  UNL1       -0.0188
      7 C         141.0715  142.4552  164.2958 C.3     1  UNL1        0.0311
      8 C         142.0169  142.0300  168.8053 C.ar    1  UNL1        0.1452
      9 C         142.4382  141.6059  167.4297 C.ar    1  UNL1        0.0372
     10 C         141.5834  140.6575  166.6424 C.ar    1  UNL1        0.0064
     11 C         140.3071  140.1332  167.2309 C.ar    1  UNL1        0.0300
     12 C         139.8858  140.5573  168.6065 C.ar    1  UNL1        0.1474
     13 F         138.6095  140.0331  169.1951 F       1  UNL1       -0.2039
     14 C         140.7406  141.5057  169.3938 C.ar    1  UNL1        0.1144
     15 C         140.3192  141.9299  170.7695 C.2     1  UNL1        0.2479
     16 N         139.5233  143.1876  170.9557 N.am    1  UNL1       -0.3252
     17 O         140.6937  141.0963  171.9590 O.2     1  UNL1       -0.2702
     18 H         139.2775  143.7347  170.1750 H       1  UNL1        0.1453
     19 H         139.2467  143.4660  171.8586 H       1  UNL1        0.1453
     20 C         144.2405  142.5591  170.0404 C.3     1  UNL1        0.2525
     21 O         142.8717  142.9784  169.5926 O.3     1  UNL1       -0.4712
     22 C         141.9144  141.6069  161.5444 C.ar    1  UNL1        0.0013
     23 C         140.5992  141.5458  160.8257 C.ar    1  UNL1        0.0013
     24 C         140.3433  142.4447  159.6524 C.ar    1  UNL1        0.0145
     25 C         141.4025  143.4046  159.1979 C.ar    1  UNL1        0.0479
     26 C         142.7177  143.4657  159.9167 C.ar    1  UNL1        0.0145
     27 C         142.9736  142.5668  161.0899 C.ar    1  UNL1        0.0013
     28 N         141.1466  144.3035  158.0246 N.pl3   1  UNL1       -0.3046
     29 C         140.3201  145.5434  158.1960 C.3     1  UNL1        0.1081
     30 C         140.0641  146.4423  157.0227 C.3     1  UNL1        0.0938
     31 N         140.6347  146.1012  155.6781 N.3     1  UNL1       -0.2711
     32 C         141.4613  144.8612  155.5067 C.3     1  UNL1        0.0938
     33 C         141.7172  143.9624  156.6800 C.3     1  UNL1        0.1081
     34 C         140.3788  147.0000  154.5049 C.3     1  UNL1        0.0577
     35 C         139.4764  148.1890  154.6537 C.3     1  UNL1        0.0173
     36 C         141.0253  146.7100  153.1828 C.3     1  UNL1        0.0173
@<TRIPOS>BOND
     1    20    21    1
     2    21     8    1
     3     8     9   ar
     4     9    10   ar
     5    10     1    1
     6     1     2   ar
     7     2     3   ar
     8     3     4   ar
     9     4     5   ar
    10     5    22    1
    11    22    23   ar
    12    23    24   ar
    13    24    25   ar
    14    25    28    1
    15    28    29    1
    16    29    30    1
    17    30    31    1
    18    31    34    1
    19    34    35    1
    20    34    36    1
    21    31    32    1
    22    32    33    1
    23    25    26   ar
    24    26    27   ar
    25     5     6   ar
    26     6     7    1
    27    10    11   ar
    28    11    12   ar
    29    12    13    1
    30    12    14   ar
    31    14    15    1
    32    15    16   am
    33    15    17    2
    34    14     8   ar
    35     6     1   ar
    36    27    22   ar
    37    33    28    1
    38    16    18    1
    39    16    19    1
@<TRIPOS>MOLECULE
*****
 36 39 0 0 0
SMALL
GASTEIGER

@<TRIPOS>ATOM
      1 C         143.1583  141.7917  165.7291 C.ar    1  UNL1        0.0154
      2 C         144.1735  142.8901  165.6148 C.ar    1  UNL1        0.0985
      3 N         144.8386  143.1626  164.2982 N.ar    1  UNL1       -0.2423
      4 C         144.4885  142.3368  163.0959 C.ar    1  UNL1        0.0985
      5 C         143.4733  141.2384  163.2102 C.ar    1  UNL1        0.0152
      6 C         142.8082  140.9659  164.5269 C.ar    1  UNL1       -0.0188
      7 C         141.7931  139.8675  164.6412 C.3     1  UNL1        0.0311
      8 C         140.8451  142.2308  168.9238 C.ar    1  UNL1        0.1452
      9 C         141.5102  142.5032  167.6073 C.ar    1  UNL1        0.0372
     10 C         142.4932  141.5192  167.0457 C.ar    1  UNL1        0.0064
     11 C         142.8112  140.2627  167.8008 C.ar    1  UNL1        0.0300
     12 C         142.1462  139.9903  169.1173 C.ar    1  UNL1        0.1474
     13 F         142.4641  138.7338  169.8725 F       1  UNL1       -0.2039
     14 C         141.1631  140.9743  169.6789 C.ar    1  UNL1        0.1144
     15 C         140.4980  140.7018  170.9955 C.2     1  UNL1        0.2479
     16 N         139.6055  139.5064  171.1517 N.am    1  UNL1       -0.3252
     17 O         140.7255  141.6247  172.1559 O.2     1  UNL1       -0.2702
     18 H         139.4562  138.9006  170.3901 H       1  UNL1        0.1453
     19 H         139.1690  139.3275  172.0158 H       1  UNL1        0.1453
     20 C         140.3506  144.4748  170.1360 C.3     1  UNL1        0.2525
     21 O         139.8620  143.2148  169.4853 O.3     1  UNL1       -0.4712
     22 C         143.1232  140.4126  162.0080 C.ar    1  UNL1        0.0013
     23 C         143.7281  139.0514  161.8312 C.ar    1  UNL1        0.0013
     24 C         143.3780  138.2255  160.6289 C.ar    1  UNL1        0.0145
     25 C         142.4231  138.7609  159.6035 C.ar    1  UNL1        0.0479
     26 C         141.8182  140.1221  159.7803 C.ar    1  UNL1        0.0145
     27 C         142.1683  140.9479  160.9826 C.ar    1  UNL1        0.0013
     28 N         142.0730  137.9351  158.4012 N.pl3   1  UNL1       -0.3046
     29 C         140.8166  138.2226  157.6339 C.3     1  UNL1        0.1081
     30 C         140.4665  137.3968  156.4316 C.3     1  UNL1        0.0938
     31 N         141.3727  136.2834  155.9967 N.3     1  UNL1       -0.2711
     32 C         142.6291  135.9959  156.7641 C.3     1  UNL1        0.0938
     33 C         142.9792  136.8217  157.9663 C.3     1  UNL1        0.1081
     34 C         141.0226  135.4576  154.7945 C.3     1  UNL1        0.0577
     35 C         141.4161  134.0112  154.7376 C.3     1  UNL1        0.0173
     36 C         140.2791  136.0781  153.6490 C.3     1  UNL1        0.0173
@<TRIPOS>BOND
     1    20    21    1
     2    21     8    1
     3     8     9   ar
     4     9    10   ar
     5    10     1    1
     6     1     2   ar
     7     2     3   ar
     8     3     4   ar
     9     4     5   ar
    10     5    22    1
    11    22    23   ar
    12    23    24   ar
    13    24    25   ar
    14    25    28    1
    15    28    29    1
    16    29    30    1
    17    30    31    1
    18    31    34    1
    19    34    35    1
    20    34    36    1
    21    31    32    1
    22    32    33    1
    23    25    26   ar
    24    26    27   ar
    25     5     6   ar
    26     6     7    1
    27    10    11   ar
    28    11    12   ar
    29    12    13    1
    30    12    14   ar
    31    14    15    1
    32    15    16   am
    33    15    17    2
    34    14     8   ar
    35     6     1   ar
    36    27    22   ar
    37    33    28    1
    38    16    18    1
    39    16    19    1
@<TRIPOS>MOLECULE
*****
 36 39 0 0 0
SMALL
GASTEIGER

@<TRIPOS>ATOM
      1 C         142.7378  141.7577  165.2546 C.ar    1  UNL1        0.0154
      2 C         144.0818  142.3952  165.0612 C.ar    1  UNL1        0.0985
      3 N         144.5747  142.7010  163.6780 N.ar    1  UNL1       -0.2423
      4 C         143.7236  142.3695  162.4881 C.ar    1  UNL1        0.0985
      5 C         142.3796  141.7321  162.6815 C.ar    1  UNL1        0.0152
      6 C         141.8867  141.4262  164.0648 C.ar    1  UNL1       -0.0188
      7 C         140.5428  140.7887  164.2582 C.3     1  UNL1        0.0311
      8 C         140.8389  142.1080  168.7219 C.ar    1  UNL1        0.1452
      9 C         141.3318  142.4138  167.3386 C.ar    1  UNL1        0.0372
     10 C         142.2449  141.4518  166.6380 C.ar    1  UNL1        0.0064
     11 C         142.6650  140.1840  167.3206 C.ar    1  UNL1        0.0300
     12 C         142.1721  139.8782  168.7039 C.ar    1  UNL1        0.1474
     13 F         142.5923  138.6103  169.3866 F       1  UNL1       -0.2039
     14 C         141.2590  140.8402  169.4045 C.ar    1  UNL1        0.1144
     15 C         140.7661  140.5343  170.7878 C.2     1  UNL1        0.2479
     16 N         139.7303  139.4697  170.9966 N.am    1  UNL1       -0.3252
     17 O         141.3091  141.2930  171.9623 O.2     1  UNL1       -0.2702
     18 H         139.3739  138.9717  170.2257 H       1  UNL1        0.1453
     19 H         139.4068  139.2689  171.9045 H       1  UNL1        0.1453
     20 C         140.4851  144.3100  170.0546 C.3     1  UNL1        0.2525
     21 O         139.9258  143.0700  169.4225 O.3     1  UNL1       -0.4712
     22 C         141.5286  141.4005  161.4916 C.ar    1  UNL1        0.0013
     23 C         140.5363  142.4008  160.9773 C.ar    1  UNL1        0.0013
     24 C         139.6852  142.0693  159.7874 C.ar    1  UNL1        0.0145
     25 C         139.8264  140.7374  159.1119 C.ar    1  UNL1        0.0479
     26 C         140.8188  139.7371  159.6264 C.ar    1  UNL1        0.0145
     27 C         141.6699  140.0687  160.8162 C.ar    1  UNL1        0.0013
     28 N         138.9754  140.4059  157.9221 N.pl3   1  UNL1       -0.3046
     29 C         137.6635  141.1045  157.7203 C.3     1  UNL1        0.1081
     30 C         136.8124  140.7730  156.5305 C.3     1  UNL1        0.0938
     31 N         137.2732  139.7428  155.5424 N.3     1  UNL1       -0.2711
     32 C         138.5852  139.0441  155.7442 C.3     1  UNL1        0.0938
     33 C         139.4362  139.3757  156.9340 C.3     1  UNL1        0.1081
     34 C         136.4222  139.4113  154.3525 C.3     1  UNL1        0.0577
     35 C         136.7208  138.1905  153.5336 C.3     1  UNL1        0.0173
     36 C         135.2725  140.3004  153.9816 C.3     1  UNL1        0.0173
@<TRIPOS>BOND
     1    20    21    1
     2    21     8    1
     3     8     9   ar
     4     9    10   ar
     5    10     1    1
     6     1     2   ar
     7     2     3   ar
     8     3     4   ar
     9     4     5   ar
    10     5    22    1
    11    22    23   ar
    12    23    24   ar
    13    24    25   ar
    14    25    28    1
    15    28    29    1
    16    29    30    1
    17    30    31    1
    18    31    34    1
    19    34    35    1
    20    34    36    1
    21    31    32    1
    22    32    33    1
    23    25    26   ar
    24    26    27   ar
    25     5     6   ar
    26     6     7    1
    27    10    11   ar
    28    11    12   ar
    29    12    13    1
    30    12    14   ar
    31    14    15    1
    32    15    16   am
    33    15    17    2
    34    14     8   ar
    35     6     1   ar
    36    27    22   ar
    37    33    28    1
    38    16    18    1
    39    16    19    1
@<TRIPOS>MOLECULE
*****
 36 39 0 0 0
SMALL
GASTEIGER

@<TRIPOS>ATOM
      1 C         140.7528  141.7603  164.3988 C.ar    1  UNL1        0.0154
      2 C         140.5684  143.2218  164.1159 C.ar    1  UNL1        0.0985
      3 N         140.5529  143.7155  162.6996 N.ar    1  UNL1       -0.2423
      4 C         140.7218  142.7477  161.5660 C.ar    1  UNL1        0.0985
      5 C         140.9061  141.2862  161.8489 C.ar    1  UNL1        0.0152
      6 C         140.9217  140.7925  163.2653 C.ar    1  UNL1       -0.0188
      7 C         141.1061  139.3310  163.5482 C.3     1  UNL1        0.0311
      8 C         142.0123  140.9500  168.0740 C.ar    1  UNL1        0.1452
      9 C         141.9967  141.4436  166.6576 C.ar    1  UNL1        0.0372
     10 C         140.7683  141.2667  165.8152 C.ar    1  UNL1        0.0064
     11 C         139.5555  140.5961  166.3890 C.ar    1  UNL1        0.0300
     12 C         139.5711  140.1025  167.8053 C.ar    1  UNL1        0.1474
     13 F         138.3582  139.4318  168.3793 F       1  UNL1       -0.2039
     14 C         140.7994  140.2794  168.6478 C.ar    1  UNL1        0.1144
     15 C         140.8150  139.7858  170.0642 C.2     1  UNL1        0.2479
     16 N         141.9178  138.8828  170.5317 N.am    1  UNL1       -0.3252
     17 O         139.7277  140.1950  171.0131 O.2     1  UNL1       -0.2702
     18 H         142.6314  138.6142  169.9089 H       1  UNL1        0.1453
     19 H         141.9280  138.5588  171.4613 H       1  UNL1        0.1453
     20 C         143.4497  142.4015  169.6792 C.3     1  UNL1        0.2525
     21 O         143.2406  141.1270  168.9165 O.3     1  UNL1       -0.4712
     22 C         141.0750  140.3184  160.7154 C.ar    1  UNL1        0.0013
     23 C         139.8739  139.8287  159.9621 C.ar    1  UNL1        0.0013
     24 C         140.0427  138.8608  158.8286 C.ar    1  UNL1        0.0145
     25 C         141.4127  138.3827  158.4485 C.ar    1  UNL1        0.0479
     26 C         142.6139  138.8723  159.2019 C.ar    1  UNL1        0.0145
     27 C         142.4450  139.8402  160.3353 C.ar    1  UNL1        0.0013
     28 N         141.5816  137.4148  157.3150 N.pl3   1  UNL1       -0.3046
     29 C         142.8987  136.7286  157.1048 C.3     1  UNL1        0.1081
     30 C         143.0676  135.7607  155.9713 C.3     1  UNL1        0.0938
     31 N         141.9194  135.4791  155.0481 N.3     1  UNL1       -0.2711
     32 C         140.6022  136.1655  155.2584 C.3     1  UNL1        0.0938
     33 C         140.4334  137.1333  156.3918 C.3     1  UNL1        0.1081
     34 C         142.0882  134.5113  153.9146 C.3     1  UNL1        0.0577
     35 C         142.6324  133.1380  154.1757 C.3     1  UNL1        0.0173
     36 C         141.7130  134.9167  152.5200 C.3     1  UNL1        0.0173
@<TRIPOS>BOND
     1    20    21    1
     2    21     8    1
     3     8     9   ar
     4     9    10   ar
     5    10     1    1
     6     1     2   ar
     7     2     3   ar
     8     3     4   ar
     9     4     5   ar
    10     5    22    1
    11    22    23   ar
    12    23    24   ar
    13    24    25   ar
    14    25    28    1
    15    28    29    1
    16    29    30    1
    17    30    31    1
    18    31    34    1
    19    34    35    1
    20    34    36    1
    21    31    32    1
    22    32    33    1
    23    25    26   ar
    24    26    27   ar
    25     5     6   ar
    26     6     7    1
    27    10    11   ar
    28    11    12   ar
    29    12    13    1
    30    12    14   ar
    31    14    15    1
    32    15    16   am
    33    15    17    2
    34    14     8   ar
    35     6     1   ar
    36    27    22   ar
    37    33    28    1
    38    16    18    1
    39    16    19    1
@<TRIPOS>MOLECULE
*****
 36 39 0 0 0
SMALL
GASTEIGER

@<TRIPOS>ATOM
      1 C         143.2259  141.6301  165.2095 C.ar    1  UNL1        0.0154
      2 C         144.4737  142.4620  165.1803 C.ar    1  UNL1        0.0985
      3 N         145.3561  142.4481  163.9674 N.ar    1  UNL1       -0.2423
      4 C         144.9907  141.6023  162.7837 C.ar    1  UNL1        0.0985
      5 C         143.7429  140.7704  162.8129 C.ar    1  UNL1        0.0152
      6 C         142.8605  140.7843  164.0259 C.ar    1  UNL1       -0.0188
      7 C         141.6126  139.9524  164.0551 C.3     1  UNL1        0.0311
      8 C         141.4413  140.4785  168.5620 C.ar    1  UNL1        0.1452
      9 C         142.3237  140.4646  167.3491 C.ar    1  UNL1        0.0372
     10 C         142.3435  141.6440  166.4225 C.ar    1  UNL1        0.0064
     11 C         141.4810  142.8373  166.7088 C.ar    1  UNL1        0.0300
     12 C         140.5986  142.8512  167.9217 C.ar    1  UNL1        0.1474
     13 F         139.7360  144.0445  168.2081 F       1  UNL1       -0.2039
     14 C         140.5788  141.6718  168.8483 C.ar    1  UNL1        0.1144
     15 C         139.6964  141.6857  170.0613 C.2     1  UNL1        0.2479
     16 N         138.7192  140.5710  170.2907 N.am    1  UNL1       -0.3252
     17 O         139.7911  142.8143  171.0448 O.2     1  UNL1       -0.2702
     18 H         138.6571  139.8303  169.6452 H       1  UNL1        0.1453
     19 H         138.1401  140.5801  171.0868 H       1  UNL1        0.1453
     20 C         142.7088  138.7366  170.0143 C.3     1  UNL1        0.2525
     21 O         141.4215  139.2990  169.4886 O.3     1  UNL1       -0.4712
     22 C         143.3774  139.9246  161.6293 C.ar    1  UNL1        0.0013
     23 C         142.6403  140.5318  160.4726 C.ar    1  UNL1        0.0013
     24 C         142.2748  139.6860  159.2889 C.ar    1  UNL1        0.0145
     25 C         142.6465  138.2330  159.2619 C.ar    1  UNL1        0.0479
     26 C         143.3837  137.6258  160.4186 C.ar    1  UNL1        0.0145
     27 C         143.7491  138.4716  161.6023 C.ar    1  UNL1        0.0013
     28 N         142.2811  137.3872  158.0783 N.pl3   1  UNL1       -0.3046
     29 C         143.1118  136.1885  157.7280 C.3     1  UNL1        0.1081
     30 C         142.7464  135.3426  156.5443 C.3     1  UNL1        0.0938
     31 N         141.5502  135.6956  155.7109 N.3     1  UNL1       -0.2711
     32 C         140.7194  136.8944  156.0613 C.3     1  UNL1        0.0938
     33 C         141.0849  137.7402  157.2449 C.3     1  UNL1        0.1081
     34 C         141.1848  134.8498  154.5273 C.3     1  UNL1        0.0577
     35 C         140.6647  135.4945  153.2767 C.3     1  UNL1        0.0173
     36 C         141.3394  133.3593  154.5942 C.3     1  UNL1        0.0173
@<TRIPOS>BOND
     1    20    21    1
     2    21     8    1
     3     8     9   ar
     4     9    10   ar
     5    10     1    1
     6     1     2   ar
     7     2     3   ar
     8     3     4   ar
     9     4     5   ar
    10     5    22    1
    11    22    23   ar
    12    23    24   ar
    13    24    25   ar
    14    25    28    1
    15    28    29    1
    16    29    30    1
    17    30    31    1
    18    31    34    1
    19    34    35    1
    20    34    36    1
    21    31    32    1
    22    32    33    1
    23    25    26   ar
    24    26    27   ar
    25     5     6   ar
    26     6     7    1
    27    10    11   ar
    28    11    12   ar
    29    12    13    1
    30    12    14   ar
    31    14    15    1
    32    15    16   am
    33    15    17    2
    34    14     8   ar
    35     6     1   ar
    36    27    22   ar
    37    33    28    1
    38    16    18    1
    39    16    19    1
