@<TRIPOS>MOLECULE
*****
 31 34 0 0 0
SMALL
GASTEIGER

@<TRIPOS>ATOM
      1 O         139.4947  144.0512  159.3771 O.2     1  UNL1       -0.2738
      2 C         140.5998  145.0438  159.1687 C.2     1  UNL1        0.2376
      3 N         141.4587  145.4637  160.3246 N.am    1  UNL1       -0.2832
      4 H         142.1840  146.1152  160.1878 H       1  UNL1        0.1549
      5 C         141.2124  144.8910  161.6889 C.ar    1  UNL1        0.0505
      6 C         140.1462  145.4764  162.5667 C.ar    1  UNL1        0.0178
      7 C         139.8999  144.9037  163.9310 C.ar    1  UNL1        0.0388
      8 C         140.7197  143.7456  164.4175 C.ar    1  UNL1        0.1454
      9 C         141.7860  143.1602  163.5397 C.ar    1  UNL1        0.0388
     10 C         142.0323  143.7329  162.1754 C.ar    1  UNL1        0.0178
     11 O         140.4734  143.1729  165.7818 O.3     1  UNL1       -0.4535
     12 C         139.7659  141.8582  165.9268 C.ar    1  UNL1        0.1453
     13 C         138.8662  141.3659  164.8321 C.ar    1  UNL1        0.0375
     14 C         138.1586  140.0513  164.9771 C.ar    1  UNL1        0.0031
     15 C         138.3507  139.2289  166.2167 C.ar    1  UNL1        0.0002
     16 C         139.2504  139.7211  167.3114 C.ar    1  UNL1        0.0031
     17 C         139.9580  141.0358  167.1664 C.ar    1  UNL1        0.0375
     18 C         140.8461  145.6165  157.8044 C.3     1  UNL1        0.1501
     19 S         139.7016  145.8099  156.8543 S.3     1  UNL1       -0.0659
     20 C         139.5602  147.1006  156.1032 C.2     1  UNL1        0.1902
     21 N         138.8701  148.3373  156.5976 N.2     1  UNL1       -0.2198
     22 C         138.9674  149.3822  155.5259 C.2     1  UNL1        0.1034
     23 C         138.4698  150.7954  155.4539 C.2     1  UNL1        0.0953
     24 C         138.7223  151.6177  154.2251 C.2     1  UNL1        0.2878
     25 C         139.4724  151.0269  153.0683 C.2     1  UNL1        0.0555
     26 C         139.9700  149.6137  153.1403 C.3     1  UNL1        0.0798
     27 C         139.7175  148.7914  154.3691 C.2     1  UNL1        0.0835
     28 N         140.0838  147.3812  154.7259 N.2     1  UNL1       -0.2237
     29 N         138.2247  153.0310  154.1530 N.pl3   1  UNL1        0.0806
     30 O         137.7090  153.5793  152.8556 O.2     1  UNL1        0.0415
     31 O         138.2429  153.8959  155.3785 O.co2   1  UNL1       -0.5760
@<TRIPOS>UNITY_ATOM_ATTR
29 1
charge 1
31 1
charge -1
@<TRIPOS>BOND
     1     1     2    2
     2     2    18    1
     3    18    19    1
     4    19    20    1
     5    20    21    2
     6    21    22    1
     7    22    23    2
     8    23    24    1
     9    24    29    1
    10    29    30    2
    11    29    31    1
    12    24    25    2
    13    25    26    1
    14    26    27    1
    15    27    28    2
    16     2     3   am
    17     3     5    1
    18     5     6   ar
    19     6     7   ar
    20     7     8   ar
    21     8    11    1
    22    11    12    1
    23    12    13   ar
    24    13    14   ar
    25    14    15   ar
    26    15    16   ar
    27    16    17   ar
    28     8     9   ar
    29     9    10   ar
    30    28    20    1
    31    10     5   ar
    32    27    22    1
    33    17    12   ar
    34     3     4    1
@<TRIPOS>MOLECULE
*****
 31 34 0 0 0
SMALL
GASTEIGER

@<TRIPOS>ATOM
      1 O         139.1740  142.1847  158.9435 O.2     1  UNL1       -0.2738
      2 C         138.2311  141.3660  158.1123 C.2     1  UNL1        0.2376
      3 N         137.8474  139.9849  158.5543 N.am    1  UNL1       -0.2832
      4 H         137.2286  139.4476  158.0088 H       1  UNL1        0.1549
      5 C         138.4067  139.4224  159.8274 C.ar    1  UNL1        0.0505
      6 C         139.7812  138.8221  159.8420 C.ar    1  UNL1        0.0178
      7 C         140.3405  138.2596  161.1152 C.ar    1  UNL1        0.0388
      8 C         139.5252  138.2975  162.3737 C.ar    1  UNL1        0.1454
      9 C         138.1507  138.8979  162.3591 C.ar    1  UNL1        0.0388
     10 C         137.5914  139.4603  161.0860 C.ar    1  UNL1        0.0178
     11 O         140.0845  137.7350  163.6468 O.3     1  UNL1       -0.4535
     12 C         139.7491  138.3758  164.9609 C.ar    1  UNL1        0.1453
     13 C         140.7294  139.3042  165.6145 C.ar    1  UNL1        0.0375
     14 C         140.3940  139.9450  166.9286 C.ar    1  UNL1        0.0031
     15 C         139.0784  139.6574  167.5891 C.ar    1  UNL1        0.0002
     16 C         138.0981  138.7291  166.9356 C.ar    1  UNL1        0.0031
     17 C         138.4334  138.0882  165.6214 C.ar    1  UNL1        0.0375
     18 C         137.6718  141.9285  156.8392 C.3     1  UNL1        0.1501
     19 S         136.9290  141.0375  155.8882 S.3     1  UNL1       -0.0659
     20 C         135.4449  140.8673  156.0239 C.2     1  UNL1        0.1902
     21 N         134.7466  139.9545  156.9879 N.2     1  UNL1       -0.2198
     22 C         133.2686  140.1031  156.7792 C.2     1  UNL1        0.1034
     23 C         132.0909  139.4534  157.4432 C.2     1  UNL1        0.0953
     24 C         130.6981  139.8083  157.0143 C.2     1  UNL1        0.2878
     25 C         130.4830  140.8130  155.9214 C.2     1  UNL1        0.0555
     26 C         131.6606  141.4627  155.2575 C.3     1  UNL1        0.0798
     27 C         133.0535  141.1078  155.6864 C.2     1  UNL1        0.0835
     28 N         134.3985  141.5801  155.2196 N.2     1  UNL1       -0.2237
     29 N         129.5204  139.1585  157.6783 N.pl3   1  UNL1        0.0806
     30 O         128.2662  139.9456  157.9181 O.2     1  UNL1        0.0415
     31 O         129.5969  137.7218  158.1024 O.co2   1  UNL1       -0.5760
@<TRIPOS>UNITY_ATOM_ATTR
29 1
charge 1
31 1
charge -1
@<TRIPOS>BOND
     1     1     2    2
     2     2    18    1
     3    18    19    1
     4    19    20    1
     5    20    21    2
     6    21    22    1
     7    22    23    2
     8    23    24    1
     9    24    29    1
    10    29    30    2
    11    29    31    1
    12    24    25    2
    13    25    26    1
    14    26    27    1
    15    27    28    2
    16     2     3   am
    17     3     5    1
    18     5     6   ar
    19     6     7   ar
    20     7     8   ar
    21     8    11    1
    22    11    12    1
    23    12    13   ar
    24    13    14   ar
    25    14    15   ar
    26    15    16   ar
    27    16    17   ar
    28     8     9   ar
    29     9    10   ar
    30    28    20    1
    31    10     5   ar
    32    27    22    1
    33    17    12   ar
    34     3     4    1
@<TRIPOS>MOLECULE
*****
 31 34 0 0 0
SMALL
GASTEIGER

@<TRIPOS>ATOM
      1 O         139.9199  137.6511  161.6791 O.2     1  UNL1       -0.2738
      2 C         139.6189  139.0924  161.3927 C.2     1  UNL1        0.2376
      3 N         139.9592  139.6781  160.0543 N.am    1  UNL1       -0.2832
      4 H         139.7617  140.6241  159.8663 H       1  UNL1        0.1549
      5 C         140.6005  138.8224  159.0023 C.ar    1  UNL1        0.0505
      6 C         142.0745  138.5495  159.0534 C.ar    1  UNL1        0.0178
      7 C         142.7158  137.6938  158.0015 C.ar    1  UNL1        0.0388
      8 C         141.8830  137.1110  156.8985 C.ar    1  UNL1        0.1454
      9 C         140.4089  137.3839  156.8473 C.ar    1  UNL1        0.0388
     10 C         139.7676  138.2396  157.8993 C.ar    1  UNL1        0.0178
     11 O         142.5243  136.2553  155.8465 O.3     1  UNL1       -0.4535
     12 C         142.4772  134.7607  155.9642 C.ar    1  UNL1        0.1453
     13 C         141.5342  133.9701  155.1062 C.ar    1  UNL1        0.0375
     14 C         141.4871  132.4755  155.2238 C.ar    1  UNL1        0.0031
     15 C         142.3829  131.7714  156.1994 C.ar    1  UNL1        0.0002
     16 C         143.3258  132.5618  157.0573 C.ar    1  UNL1        0.0031
     17 C         143.3729  134.0565  156.9397 C.ar    1  UNL1        0.0375
     18 C         138.9777  139.9481  162.4446 C.3     1  UNL1        0.1501
     19 S         139.7672  141.0358  163.1106 S.3     1  UNL1       -0.0659
     20 C         139.8528  141.0916  164.6071 C.2     1  UNL1        0.1902
     21 N         140.5311  142.1601  165.4122 N.2     1  UNL1       -0.2198
     22 C         140.3727  141.8176  166.8640 C.2     1  UNL1        0.1034
     23 C         140.8349  142.5061  168.1139 C.2     1  UNL1        0.0953
     24 C         140.5211  141.9143  169.4559 C.2     1  UNL1        0.2878
     25 C         139.7449  140.6340  169.5481 C.2     1  UNL1        0.0555
     26 C         139.2827  139.9455  168.2982 C.3     1  UNL1        0.0798
     27 C         139.5966  140.5373  166.9561 C.2     1  UNL1        0.0835
     28 N         139.2753  140.0886  165.5613 N.2     1  UNL1       -0.2237
     29 N         140.9833  142.6027  170.7059 N.pl3   1  UNL1        0.0806
     30 O         140.4543  142.1686  172.0407 O.2     1  UNL1        0.0415
     31 O         141.9745  143.7254  170.6211 O.co2   1  UNL1       -0.5760
@<TRIPOS>UNITY_ATOM_ATTR
29 1
charge 1
31 1
charge -1
@<TRIPOS>BOND
     1     1     2    2
     2     2    18    1
     3    18    19    1
     4    19    20    1
     5    20    21    2
     6    21    22    1
     7    22    23    2
     8    23    24    1
     9    24    29    1
    10    29    30    2
    11    29    31    1
    12    24    25    2
    13    25    26    1
    14    26    27    1
    15    27    28    2
    16     2     3   am
    17     3     5    1
    18     5     6   ar
    19     6     7   ar
    20     7     8   ar
    21     8    11    1
    22    11    12    1
    23    12    13   ar
    24    13    14   ar
    25    14    15   ar
    26    15    16   ar
    27    16    17   ar
    28     8     9   ar
    29     9    10   ar
    30    28    20    1
    31    10     5   ar
    32    27    22    1
    33    17    12   ar
    34     3     4    1
@<TRIPOS>MOLECULE
*****
 31 34 0 0 0
SMALL
GASTEIGER

@<TRIPOS>ATOM
      1 O         139.7300  137.3417  162.2946 O.2     1  UNL1       -0.2738
      2 C         139.3744  138.7968  162.2159 C.2     1  UNL1        0.2376
      3 N         139.7401  139.5935  160.9986 N.am    1  UNL1       -0.2832
      4 H         139.5067  140.5485  160.9470 H       1  UNL1        0.1549
      5 C         140.4614  138.9351  159.8601 C.ar    1  UNL1        0.0505
      6 C         139.7132  138.5586  158.6158 C.ar    1  UNL1        0.0178
      7 C         140.4345  137.9001  157.4773 C.ar    1  UNL1        0.0388
      8 C         141.9039  137.6181  157.5831 C.ar    1  UNL1        0.1454
      9 C         142.6521  137.9946  158.8275 C.ar    1  UNL1        0.0388
     10 C         141.9309  138.6531  159.9660 C.ar    1  UNL1        0.0178
     11 O         142.6252  136.9597  156.4446 O.3     1  UNL1       -0.4535
     12 C         142.5656  135.4699  156.2803 C.ar    1  UNL1        0.1453
     13 C         141.4766  134.8491  155.4564 C.ar    1  UNL1        0.0375
     14 C         141.4171  133.3594  155.2922 C.ar    1  UNL1        0.0031
     15 C         142.4465  132.4903  155.9518 C.ar    1  UNL1        0.0002
     16 C         143.5355  133.1111  156.7756 C.ar    1  UNL1        0.0031
     17 C         143.5950  134.6009  156.9399 C.ar    1  UNL1        0.0375
     18 C         138.6532  139.4552  163.3544 C.3     1  UNL1        0.1501
     19 S         138.6337  138.8053  164.7061 S.3     1  UNL1       -0.0659
     20 C         139.4737  139.3611  165.8177 C.2     1  UNL1        0.1902
     21 N         138.9843  140.2124  166.9516 N.2     1  UNL1       -0.2198
     22 C         140.1587  140.5406  167.8253 C.2     1  UNL1        0.1034
     23 C         140.2785  141.3461  169.0849 C.2     1  UNL1        0.0953
     24 C         141.6135  141.5032  169.7505 C.2     1  UNL1        0.2878
     25 C         142.8287  140.8547  169.1565 C.2     1  UNL1        0.0555
     26 C         142.7088  140.0492  167.8969 C.3     1  UNL1        0.0798
     27 C         141.3739  139.8921  167.2312 C.2     1  UNL1        0.0835
     28 N         140.9505  139.1632  165.9905 N.2     1  UNL1       -0.2237
     29 N         141.7334  142.3087  171.0102 N.pl3   1  UNL1        0.0806
     30 O         140.7743  142.0803  172.1406 O.2     1  UNL1        0.0415
     31 O         142.8123  143.3427  171.1394 O.co2   1  UNL1       -0.5760
@<TRIPOS>UNITY_ATOM_ATTR
29 1
charge 1
31 1
charge -1
@<TRIPOS>BOND
     1     1     2    2
     2     2    18    1
     3    18    19    1
     4    19    20    1
     5    20    21    2
     6    21    22    1
     7    22    23    2
     8    23    24    1
     9    24    29    1
    10    29    30    2
    11    29    31    1
    12    24    25    2
    13    25    26    1
    14    26    27    1
    15    27    28    2
    16     2     3   am
    17     3     5    1
    18     5     6   ar
    19     6     7   ar
    20     7     8   ar
    21     8    11    1
    22    11    12    1
    23    12    13   ar
    24    13    14   ar
    25    14    15   ar
    26    15    16   ar
    27    16    17   ar
    28     8     9   ar
    29     9    10   ar
    30    28    20    1
    31    10     5   ar
    32    27    22    1
    33    17    12   ar
    34     3     4    1
@<TRIPOS>MOLECULE
*****
 31 34 0 0 0
SMALL
GASTEIGER

@<TRIPOS>ATOM
      1 O         138.6446  142.7482  158.3491 O.2     1  UNL1       -0.2738
      2 C         137.7527  141.8196  157.5796 C.2     1  UNL1        0.2376
      3 N         137.5492  140.4110  158.0533 N.am    1  UNL1       -0.2832
      4 H         136.9638  139.8015  157.5482 H       1  UNL1        0.1549
      5 C         138.2376  139.9310  159.2966 C.ar    1  UNL1        0.0505
      6 C         139.5851  139.2788  159.2035 C.ar    1  UNL1        0.0178
      7 C         140.2736  138.7988  160.4467 C.ar    1  UNL1        0.0388
      8 C         139.6144  138.9710  161.7831 C.ar    1  UNL1        0.1454
      9 C         138.2668  139.6232  161.8762 C.ar    1  UNL1        0.0388
     10 C         137.5784  140.1032  160.6329 C.ar    1  UNL1        0.0178
     11 O         140.3028  138.4911  163.0263 O.3     1  UNL1       -0.4535
     12 C         139.6642  138.7035  164.3668 C.ar    1  UNL1        0.1453
     13 C         138.7832  137.6412  164.9547 C.ar    1  UNL1        0.0375
     14 C         138.1446  137.8536  166.2952 C.ar    1  UNL1        0.0031
     15 C         138.3869  139.1282  167.0479 C.ar    1  UNL1        0.0002
     16 C         139.2678  140.1904  166.4601 C.ar    1  UNL1        0.0031
     17 C         139.9065  139.9781  165.1196 C.ar    1  UNL1        0.0375
     18 C         137.0643  142.2996  156.3363 C.3     1  UNL1        0.1501
     19 S         136.2983  141.3331  155.4824 S.3     1  UNL1       -0.0659
     20 C         134.9415  140.8621  155.9152 C.2     1  UNL1        0.1902
     21 N         133.6265  141.3912  155.4245 N.2     1  UNL1       -0.2198
     22 C         132.5338  140.6354  156.1206 C.2     1  UNL1        0.1034
     23 C         131.0390  140.7256  156.0349 C.2     1  UNL1        0.0953
     24 C         130.1838  139.8195  156.8702 C.2     1  UNL1        0.2878
     25 C         130.8235  138.8233  157.7912 C.2     1  UNL1        0.0555
     26 C         132.3183  138.7330  157.8770 C.3     1  UNL1        0.0798
     27 C         133.1734  139.6391  157.0417 C.2     1  UNL1        0.0835
     28 N         134.6615  139.7792  156.9147 N.2     1  UNL1       -0.2237
     29 N         128.6890  139.9097  156.7845 N.pl3   1  UNL1        0.0806
     30 O         127.8511  139.6540  158.0021 O.2     1  UNL1        0.0415
     31 O         128.0320  140.2556  155.4811 O.co2   1  UNL1       -0.5760
@<TRIPOS>UNITY_ATOM_ATTR
29 1
charge 1
31 1
charge -1
@<TRIPOS>BOND
     1     1     2    2
     2     2    18    1
     3    18    19    1
     4    19    20    1
     5    20    21    2
     6    21    22    1
     7    22    23    2
     8    23    24    1
     9    24    29    1
    10    29    30    2
    11    29    31    1
    12    24    25    2
    13    25    26    1
    14    26    27    1
    15    27    28    2
    16     2     3   am
    17     3     5    1
    18     5     6   ar
    19     6     7   ar
    20     7     8   ar
    21     8    11    1
    22    11    12    1
    23    12    13   ar
    24    13    14   ar
    25    14    15   ar
    26    15    16   ar
    27    16    17   ar
    28     8     9   ar
    29     9    10   ar
    30    28    20    1
    31    10     5   ar
    32    27    22    1
    33    17    12   ar
    34     3     4    1
@<TRIPOS>MOLECULE
*****
 31 34 0 0 0
SMALL
GASTEIGER

@<TRIPOS>ATOM
      1 O         141.3950  138.7211  161.4768 O.2     1  UNL1       -0.2738
      2 C         140.1609  138.8062  160.6285 C.2     1  UNL1        0.2376
      3 N         138.8132  138.9311  161.2754 N.am    1  UNL1       -0.2832
      4 H         138.0032  138.9869  160.7186 H       1  UNL1        0.1549
      5 C         138.6998  138.9710  162.7705 C.ar    1  UNL1        0.0505
      6 C         139.0230  137.7503  163.5800 C.ar    1  UNL1        0.0178
      7 C         138.9096  137.7902  165.0752 C.ar    1  UNL1        0.0388
      8 C         138.4730  139.0508  165.7609 C.ar    1  UNL1        0.1454
      9 C         138.1498  140.2716  164.9514 C.ar    1  UNL1        0.0388
     10 C         138.2632  140.2317  163.4562 C.ar    1  UNL1        0.0178
     11 O         138.3596  139.0907  167.2561 O.3     1  UNL1       -0.4535
     12 C         139.3795  139.8349  168.0660 C.ar    1  UNL1        0.1453
     13 C         139.0592  140.2588  169.4688 C.ar    1  UNL1        0.0375
     14 C         140.0791  141.0030  170.2787 C.ar    1  UNL1        0.0031
     15 C         141.4192  141.3233  169.6859 C.ar    1  UNL1        0.0002
     16 C         141.7395  140.8994  168.2832 C.ar    1  UNL1        0.0031
     17 C         140.7196  140.1552  167.4732 C.ar    1  UNL1        0.0375
     18 C         140.2743  138.7663  159.1333 C.3     1  UNL1        0.1501
     19 S         141.6152  138.5797  158.4876 S.3     1  UNL1       -0.0659
     20 C         141.8947  137.3455  157.6823 C.2     1  UNL1        0.1902
     21 N         142.9749  136.3409  157.9545 N.2     1  UNL1       -0.2198
     22 C         142.8908  135.2736  156.9038 C.2     1  UNL1        0.1034
     23 C         143.6990  134.0323  156.6672 C.2     1  UNL1        0.0953
     24 C         143.3749  133.1359  155.5091 C.2     1  UNL1        0.2878
     25 C         142.2427  133.4808  154.5876 C.2     1  UNL1        0.0555
     26 C         141.4346  134.7221  154.8242 C.3     1  UNL1        0.0798
     27 C         141.7587  135.6185  155.9823 C.2     1  UNL1        0.0835
     28 N         141.1430  136.8990  156.4634 N.2     1  UNL1       -0.2237
     29 N         144.1830  131.8945  155.2725 N.pl3   1  UNL1        0.0806
     30 O         143.7627  130.9160  154.2162 O.2     1  UNL1        0.0415
     31 O         145.4114  131.6316  156.0922 O.co2   1  UNL1       -0.5760
@<TRIPOS>UNITY_ATOM_ATTR
29 1
charge 1
31 1
charge -1
@<TRIPOS>BOND
     1     1     2    2
     2     2    18    1
     3    18    19    1
     4    19    20    1
     5    20    21    2
     6    21    22    1
     7    22    23    2
     8    23    24    1
     9    24    29    1
    10    29    30    2
    11    29    31    1
    12    24    25    2
    13    25    26    1
    14    26    27    1
    15    27    28    2
    16     2     3   am
    17     3     5    1
    18     5     6   ar
    19     6     7   ar
    20     7     8   ar
    21     8    11    1
    22    11    12    1
    23    12    13   ar
    24    13    14   ar
    25    14    15   ar
    26    15    16   ar
    27    16    17   ar
    28     8     9   ar
    29     9    10   ar
    30    28    20    1
    31    10     5   ar
    32    27    22    1
    33    17    12   ar
    34     3     4    1
@<TRIPOS>MOLECULE
*****
 31 34 0 0 0
SMALL
GASTEIGER

@<TRIPOS>ATOM
      1 O         138.7158  139.4051  157.8158 O.2     1  UNL1       -0.2738
      2 C         138.1741  140.7752  158.0971 C.2     1  UNL1        0.2376
      3 N         138.1206  141.2857  159.5066 N.am    1  UNL1       -0.2832
      4 H         137.7650  142.1850  159.6913 H       1  UNL1        0.1549
      5 C         138.6088  140.4260  160.6347 C.ar    1  UNL1        0.0505
      6 C         137.6932  139.4139  161.2569 C.ar    1  UNL1        0.0178
      7 C         138.1815  138.5541  162.3850 C.ar    1  UNL1        0.0388
      8 C         139.5853  138.7066  162.8908 C.ar    1  UNL1        0.1454
      9 C         140.5010  139.7187  162.2686 C.ar    1  UNL1        0.0388
     10 C         140.0128  140.5785  161.1405 C.ar    1  UNL1        0.0178
     11 O         140.0736  137.8468  164.0188 O.3     1  UNL1       -0.4535
     12 C         140.9195  138.4432  165.1045 C.ar    1  UNL1        0.1453
     13 C         140.3041  139.3684  166.1122 C.ar    1  UNL1        0.0375
     14 C         141.1500  139.9647  167.1978 C.ar    1  UNL1        0.0031
     15 C         142.6115  139.6360  167.2758 C.ar    1  UNL1        0.0002
     16 C         143.2270  138.7109  166.2682 C.ar    1  UNL1        0.0031
     17 C         142.3810  138.1144  165.1825 C.ar    1  UNL1        0.0375
     18 C         137.6858  141.6349  156.9691 C.3     1  UNL1        0.1501
     19 S         136.8848  141.0277  155.8557 S.3     1  UNL1       -0.0659
     20 C         135.4025  140.8538  156.0066 C.2     1  UNL1        0.1902
     21 N         134.7165  139.9359  156.9744 N.2     1  UNL1       -0.2198
     22 C         133.2360  140.0820  156.7820 C.2     1  UNL1        0.1034
     23 C         132.0669  139.4273  157.4560 C.2     1  UNL1        0.0953
     24 C         130.6688  139.7808  157.0432 C.2     1  UNL1        0.2878
     25 C         130.4399  140.7891  155.9565 C.2     1  UNL1        0.0555
     26 C         131.6091  141.4439  155.2826 C.3     1  UNL1        0.0798
     27 C         133.0071  141.0903  155.6953 C.2     1  UNL1        0.0835
     28 N         134.3461  141.5673  155.2161 N.2     1  UNL1       -0.2237
     29 N         129.4995  139.1260  157.7172 N.pl3   1  UNL1        0.0806
     30 O         128.1019  139.4663  157.2922 O.2     1  UNL1        0.0415
     31 O         129.7281  138.1310  158.8161 O.co2   1  UNL1       -0.5760
@<TRIPOS>UNITY_ATOM_ATTR
29 1
charge 1
31 1
charge -1
@<TRIPOS>BOND
     1     1     2    2
     2     2    18    1
     3    18    19    1
     4    19    20    1
     5    20    21    2
     6    21    22    1
     7    22    23    2
     8    23    24    1
     9    24    29    1
    10    29    30    2
    11    29    31    1
    12    24    25    2
    13    25    26    1
    14    26    27    1
    15    27    28    2
    16     2     3   am
    17     3     5    1
    18     5     6   ar
    19     6     7   ar
    20     7     8   ar
    21     8    11    1
    22    11    12    1
    23    12    13   ar
    24    13    14   ar
    25    14    15   ar
    26    15    16   ar
    27    16    17   ar
    28     8     9   ar
    29     9    10   ar
    30    28    20    1
    31    10     5   ar
    32    27    22    1
    33    17    12   ar
    34     3     4    1
@<TRIPOS>MOLECULE
*****
 31 34 0 0 0
SMALL
GASTEIGER

@<TRIPOS>ATOM
      1 O         138.2438  139.8891  157.8566 O.2     1  UNL1       -0.2738
      2 C         139.4341  139.0024  157.6398 C.2     1  UNL1        0.2376
      3 N         140.2507  138.5433  158.8113 N.am    1  UNL1       -0.2832
      4 H         141.0319  137.9613  158.6690 H       1  UNL1        0.1549
      5 C         139.8770  138.9710  160.1997 C.ar    1  UNL1        0.0505
      6 C         140.5197  140.1810  160.8103 C.ar    1  UNL1        0.0178
      7 C         140.1460  140.6086  162.1986 C.ar    1  UNL1        0.0388
      8 C         139.1297  139.8262  162.9764 C.ar    1  UNL1        0.1454
      9 C         138.4870  138.6162  162.3658 C.ar    1  UNL1        0.0388
     10 C         138.8606  138.1885  160.9775 C.ar    1  UNL1        0.0178
     11 O         138.7560  140.2539  164.3647 O.3     1  UNL1       -0.4535
     12 C         138.7455  141.7102  164.7236 C.ar    1  UNL1        0.1453
     13 C         137.6695  142.6072  164.1870 C.ar    1  UNL1        0.0375
     14 C         137.6591  144.0636  164.5459 C.ar    1  UNL1        0.0031
     15 C         138.7245  144.6231  165.4414 C.ar    1  UNL1        0.0002
     16 C         139.8004  143.7262  165.9780 C.ar    1  UNL1        0.0031
     17 C         139.8109  142.2697  165.6191 C.ar    1  UNL1        0.0375
     18 C         139.8077  138.5748  156.2515 C.3     1  UNL1        0.1501
     19 S         141.2295  138.2176  155.9338 S.3     1  UNL1       -0.0659
     20 C         141.7000  136.8018  156.0898 C.2     1  UNL1        0.1902
     21 N         142.8499  136.3431  156.9367 N.2     1  UNL1       -0.2198
     22 C         142.9637  134.8540  156.7966 C.2     1  UNL1        0.1034
     23 C         143.9109  133.8588  157.3984 C.2     1  UNL1        0.0953
     24 C         143.7785  132.4019  157.0668 C.2     1  UNL1        0.2878
     25 C         142.6989  131.9403  156.1333 C.2     1  UNL1        0.0555
     26 C         141.7517  132.9356  155.5315 C.3     1  UNL1        0.0798
     27 C         141.8841  134.3924  155.8631 C.2     1  UNL1        0.0835
     28 N         141.1031  135.5962  155.4263 N.2     1  UNL1       -0.2237
     29 N         144.7258  131.4066  157.6686 N.pl3   1  UNL1        0.0806
     30 O         145.9496  131.8802  158.3952 O.2     1  UNL1        0.0415
     31 O         144.4491  129.9376  157.5439 O.co2   1  UNL1       -0.5760
@<TRIPOS>UNITY_ATOM_ATTR
29 1
charge 1
31 1
charge -1
@<TRIPOS>BOND
     1     1     2    2
     2     2    18    1
     3    18    19    1
     4    19    20    1
     5    20    21    2
     6    21    22    1
     7    22    23    2
     8    23    24    1
     9    24    29    1
    10    29    30    2
    11    29    31    1
    12    24    25    2
    13    25    26    1
    14    26    27    1
    15    27    28    2
    16     2     3   am
    17     3     5    1
    18     5     6   ar
    19     6     7   ar
    20     7     8   ar
    21     8    11    1
    22    11    12    1
    23    12    13   ar
    24    13    14   ar
    25    14    15   ar
    26    15    16   ar
    27    16    17   ar
    28     8     9   ar
    29     9    10   ar
    30    28    20    1
    31    10     5   ar
    32    27    22    1
    33    17    12   ar
    34     3     4    1
@<TRIPOS>MOLECULE
*****
 31 34 0 0 0
SMALL
GASTEIGER

@<TRIPOS>ATOM
      1 O         139.5107  139.9063  160.7291 O.2     1  UNL1       -0.2738
      2 C         140.2679  138.9804  159.8240 C.2     1  UNL1        0.2376
      3 N         141.4442  138.2128  160.3505 N.am    1  UNL1       -0.2832
      4 H         141.9413  137.6050  159.7565 H       1  UNL1        0.1549
      5 C         141.8632  138.3711  161.7821 C.ar    1  UNL1        0.0505
      6 C         142.8267  139.4546  162.1661 C.ar    1  UNL1        0.0178
      7 C         143.2457  139.6129  163.5977 C.ar    1  UNL1        0.0388
      8 C         142.7011  138.6878  164.6452 C.ar    1  UNL1        0.1454
      9 C         141.7375  137.6042  164.2612 C.ar    1  UNL1        0.0388
     10 C         141.3185  137.4458  162.8297 C.ar    1  UNL1        0.0178
     11 O         143.1201  138.8461  166.0768 O.3     1  UNL1       -0.4535
     12 C         142.1316  139.3233  167.0992 C.ar    1  UNL1        0.1453
     13 C         140.7839  139.8189  166.6653 C.ar    1  UNL1        0.0375
     14 C         139.7955  140.2960  167.6876 C.ar    1  UNL1        0.0031
     15 C         140.1546  140.2776  169.1439 C.ar    1  UNL1        0.0002
     16 C         141.5022  139.7821  169.5778 C.ar    1  UNL1        0.0031
     17 C         142.4908  139.3049  168.5554 C.ar    1  UNL1        0.0375
     18 C         139.8490  138.8221  158.3924 C.3     1  UNL1        0.1501
     19 S         140.8868  138.7103  157.3152 S.3     1  UNL1       -0.0659
     20 C         141.4710  137.3719  156.9725 C.2     1  UNL1        0.1902
     21 N         142.6377  136.7189  157.6524 N.2     1  UNL1       -0.2198
     22 C         142.8788  135.3950  156.9898 C.2     1  UNL1        0.1034
     23 C         143.8935  134.3185  157.2378 C.2     1  UNL1        0.0953
     24 C         143.8906  133.0769  156.3962 C.2     1  UNL1        0.2878
     25 C         142.8729  132.9117  155.3067 C.2     1  UNL1        0.0555
     26 C         141.8581  133.9881  155.0588 C.3     1  UNL1        0.0798
     27 C         141.8611  135.2297  155.9003 C.2     1  UNL1        0.0835
     28 N         140.9910  136.4516  155.8896 N.2     1  UNL1       -0.2237
     29 N         144.9053  132.0003  156.6441 N.pl3   1  UNL1        0.0806
     30 O         145.6385  131.9475  157.9516 O.2     1  UNL1        0.0415
     31 O         145.1869  130.9767  155.5845 O.co2   1  UNL1       -0.5760
@<TRIPOS>UNITY_ATOM_ATTR
29 1
charge 1
31 1
charge -1
@<TRIPOS>BOND
     1     1     2    2
     2     2    18    1
     3    18    19    1
     4    19    20    1
     5    20    21    2
     6    21    22    1
     7    22    23    2
     8    23    24    1
     9    24    29    1
    10    29    30    2
    11    29    31    1
    12    24    25    2
    13    25    26    1
    14    26    27    1
    15    27    28    2
    16     2     3   am
    17     3     5    1
    18     5     6   ar
    19     6     7   ar
    20     7     8   ar
    21     8    11    1
    22    11    12    1
    23    12    13   ar
    24    13    14   ar
    25    14    15   ar
    26    15    16   ar
    27    16    17   ar
    28     8     9   ar
    29     9    10   ar
    30    28    20    1
    31    10     5   ar
    32    27    22    1
    33    17    12   ar
    34     3     4    1
