@<TRIPOS>MOLECULE
*****
 25 28 0 0 0
SMALL
GASTEIGER

@<TRIPOS>ATOM
      1 N         143.6184  143.9723  171.4364 N.pl3   1  UNL1       -0.3375
      2 C         143.0004  143.1546  170.3412 C.ar    1  UNL1        0.1567
      3 N         143.6801  142.7146  169.0785 N.ar    1  UNL1       -0.2245
      4 C         142.6939  141.9215  168.2733 C.ar    1  UNL1        0.0889
      5 C         142.8033  141.2385  166.9423 C.ar    1  UNL1        0.0151
      6 C         141.6234  140.5052  166.3764 C.ar    1  UNL1       -0.0232
      7 C         140.3343  140.4549  167.1415 C.ar    1  UNL1       -0.0241
      8 C         140.2248  141.1379  168.4725 C.ar    1  UNL1        0.0035
      9 C         141.4047  141.8712  169.0384 C.ar    1  UNL1        0.0494
     10 S         141.5941  142.6333  170.3164 S.2     1  UNL1       -0.0520
     11 C         139.0472  139.7843  166.7622 C.3     1  UNL1        0.0434
     12 C         138.7316  138.9983  165.5242 C.3     1  UNL1        0.0771
     13 N         139.6250  138.6889  164.3598 N.3     1  UNL1       -0.2683
     14 C         141.0547  139.0889  164.1456 C.3     1  UNL1        0.0771
     15 C         141.9441  139.8973  165.0431 C.3     1  UNL1        0.0434
     16 H         144.5540  144.2692  171.3610 H       1  UNL1        0.1442
     17 H         143.0884  144.2120  172.2307 H       1  UNL1        0.1442
     18 C         139.0069  137.8712  163.2646 C.3     1  UNL1        0.0992
     19 C         138.9061  138.4307  161.8764 C.ar    1  UNL1       -0.0039
     20 C         137.7842  139.3614  161.5226 C.ar    1  UNL1       -0.0028
     21 C         137.6833  139.9209  160.1346 C.ar    1  UNL1        0.0020
     22 C         138.7043  139.5497  159.1003 C.ar    1  UNL1        0.0296
     23 C         139.8263  138.6190  159.4541 C.ar    1  UNL1        0.1399
     24 F         140.8473  138.2478  158.4198 F       1  UNL1       -0.2042
     25 C         139.9271  138.0595  160.8421 C.ar    1  UNL1        0.0267
@<TRIPOS>BOND
     1     1     2    1
     2     2     3   ar
     3     3     4   ar
     4     4     5   ar
     5     5     6   ar
     6     6     7   ar
     7     7     8   ar
     8     8     9   ar
     9     9    10   ar
    10     7    11    1
    11    11    12    1
    12    12    13    1
    13    13    18    1
    14    18    19    1
    15    19    20   ar
    16    20    21   ar
    17    21    22   ar
    18    22    23   ar
    19    23    24    1
    20    23    25   ar
    21    13    14    1
    22    14    15    1
    23    10     2   ar
    24    25    19   ar
    25     9     4   ar
    26    15     6    1
    27     1    16    1
    28     1    17    1
@<TRIPOS>MOLECULE
*****
 25 28 0 0 0
SMALL
GASTEIGER

@<TRIPOS>ATOM
      1 N         143.3986  143.9232  171.4133 N.pl3   1  UNL1       -0.3375
      2 C         142.7963  143.1224  170.2971 C.ar    1  UNL1        0.1567
      3 N         141.4741  143.3832  169.6384 N.ar    1  UNL1       -0.2245
      4 C         141.2712  142.3421  168.5779 C.ar    1  UNL1        0.0889
      5 C         140.1512  142.1006  167.6097 C.ar    1  UNL1        0.0151
      6 C         140.2280  140.9548  166.6446 C.ar    1  UNL1       -0.0232
      7 C         141.4247  140.0506  166.6478 C.ar    1  UNL1       -0.0241
      8 C         142.5446  140.2919  167.6159 C.ar    1  UNL1        0.0035
      9 C         142.4679  141.4377  168.5810 C.ar    1  UNL1        0.0494
     10 S         143.4105  141.9200  169.6436 S.2     1  UNL1       -0.0520
     11 C         141.7000  138.8605  165.7771 C.3     1  UNL1        0.0434
     12 C         140.8465  138.2809  164.6881 C.3     1  UNL1        0.0771
     13 N         139.5070  138.7482  164.2011 N.3     1  UNL1       -0.2683
     14 C         138.6901  139.9105  164.6825 C.3     1  UNL1        0.0771
     15 C         139.0109  140.8926  165.7700 C.3     1  UNL1        0.0434
     16 H         142.9160  144.7001  171.7778 H       1  UNL1        0.1442
     17 H         144.2765  143.6720  171.7813 H       1  UNL1        0.1442
     18 C         138.9047  137.9474  163.0849 C.3     1  UNL1        0.0992
     19 C         138.8915  138.4974  161.6894 C.ar    1  UNL1       -0.0039
     20 C         137.7604  139.3739  161.2394 C.ar    1  UNL1       -0.0028
     21 C         137.7471  139.9239  159.8441 C.ar    1  UNL1        0.0020
     22 C         138.8648  139.5974  158.8985 C.ar    1  UNL1        0.0296
     23 C         139.9959  138.7209  159.3484 C.ar    1  UNL1        0.1399
     24 F         141.1137  138.3944  158.4029 F       1  UNL1       -0.2042
     25 C         140.0092  138.1709  160.7438 C.ar    1  UNL1        0.0267
@<TRIPOS>BOND
     1     1     2    1
     2     2     3   ar
     3     3     4   ar
     4     4     5   ar
     5     5     6   ar
     6     6     7   ar
     7     7     8   ar
     8     8     9   ar
     9     9    10   ar
    10     7    11    1
    11    11    12    1
    12    12    13    1
    13    13    18    1
    14    18    19    1
    15    19    20   ar
    16    20    21   ar
    17    21    22   ar
    18    22    23   ar
    19    23    24    1
    20    23    25   ar
    21    13    14    1
    22    14    15    1
    23    10     2   ar
    24    25    19   ar
    25     9     4   ar
    26    15     6    1
    27     1    16    1
    28     1    17    1
@<TRIPOS>MOLECULE
*****
 25 28 0 0 0
SMALL
GASTEIGER

@<TRIPOS>ATOM
      1 N         140.3280  142.4873  171.6824 N.pl3   1  UNL1       -0.3375
      2 C         140.1626  142.0056  170.2715 C.ar    1  UNL1        0.1567
      3 N         140.5327  142.7644  169.0316 N.ar    1  UNL1       -0.2245
      4 C         140.1970  141.9082  167.8467 C.ar    1  UNL1        0.0889
      5 C         140.3425  142.1350  166.3711 C.ar    1  UNL1        0.0151
      6 C         139.9105  141.0737  165.4029 C.ar    1  UNL1       -0.0232
      7 C         139.3330  139.7858  165.9105 C.ar    1  UNL1       -0.0241
      8 C         139.1874  139.5590  167.3860 C.ar    1  UNL1        0.0035
      9 C         139.6194  140.6202  168.3542 C.ar    1  UNL1        0.0494
     10 S         139.5982  140.6804  169.8528 S.2     1  UNL1       -0.0520
     11 C         138.8436  138.6060  165.1238 C.3     1  UNL1        0.0434
     12 C         138.8109  138.4230  163.6353 C.3     1  UNL1        0.0771
     13 N         139.2595  139.3743  162.5660 N.3     1  UNL1       -0.2683
     14 C         139.8517  140.7438  162.7209 C.3     1  UNL1        0.0771
     15 C         140.1414  141.5001  163.9835 C.3     1  UNL1        0.0434
     16 H         140.7105  143.3775  171.8570 H       1  UNL1        0.1442
     17 H         140.0540  141.9133  172.4339 H       1  UNL1        0.1442
     18 C         139.0942  138.8926  161.1551 C.3     1  UNL1        0.0992
     19 C         140.3001  138.5277  160.3409 C.ar    1  UNL1       -0.0039
     20 C         140.2441  138.6006  158.8437 C.ar    1  UNL1       -0.0028
     21 C         141.4498  138.2357  158.0295 C.ar    1  UNL1        0.0020
     22 C         142.7116  137.7980  158.7125 C.ar    1  UNL1        0.0296
     23 C         142.7675  137.7251  160.2097 C.ar    1  UNL1        0.1399
     24 F         144.0293  137.2874  160.8927 F       1  UNL1       -0.2042
     25 C         141.5618  138.0900  161.0239 C.ar    1  UNL1        0.0267
@<TRIPOS>BOND
     1     1     2    1
     2     2     3   ar
     3     3     4   ar
     4     4     5   ar
     5     5     6   ar
     6     6     7   ar
     7     7     8   ar
     8     8     9   ar
     9     9    10   ar
    10     7    11    1
    11    11    12    1
    12    12    13    1
    13    13    18    1
    14    18    19    1
    15    19    20   ar
    16    20    21   ar
    17    21    22   ar
    18    22    23   ar
    19    23    24    1
    20    23    25   ar
    21    13    14    1
    22    14    15    1
    23    10     2   ar
    24    25    19   ar
    25     9     4   ar
    26    15     6    1
    27     1    16    1
    28     1    17    1
@<TRIPOS>MOLECULE
*****
 25 28 0 0 0
SMALL
GASTEIGER

@<TRIPOS>ATOM
      1 N         140.9692  146.5177  156.7631 N.pl3   1  UNL1       -0.3375
      2 C         140.9330  145.8220  158.0916 C.ar    1  UNL1        0.1567
      3 N         139.9600  146.0904  159.2012 N.ar    1  UNL1       -0.2245
      4 C         140.2891  145.1701  160.3390 C.ar    1  UNL1        0.0889
      5 C         139.6695  144.9862  161.6926 C.ar    1  UNL1        0.0151
      6 C         140.2264  143.9651  162.6399 C.ar    1  UNL1       -0.0232
      7 C         141.4028  143.1280  162.2336 C.ar    1  UNL1       -0.0241
      8 C         142.0224  143.3118  160.8800 C.ar    1  UNL1        0.0035
      9 C         141.4655  144.3329  159.9326 C.ar    1  UNL1        0.0494
     10 S         141.8635  144.7358  158.5437 S.2     1  UNL1       -0.0520
     11 C         142.1080  142.0621  163.0188 C.3     1  UNL1        0.0434
     12 C         141.8109  141.5701  164.4044 C.3     1  UNL1        0.0771
     13 N         140.7353  142.0226  165.3468 N.3     1  UNL1       -0.2683
     14 C         139.6910  143.0787  165.1366 C.3     1  UNL1        0.0771
     15 C         139.4646  143.9432  163.9319 C.3     1  UNL1        0.0434
     16 H         140.3124  147.2219  156.5581 H       1  UNL1        0.1442
     17 H         141.6498  146.2701  156.0962 H       1  UNL1        0.1442
     18 C         140.6991  141.3269  166.6753 C.3     1  UNL1        0.0992
     19 C         141.2442  142.0097  167.8946 C.ar    1  UNL1       -0.0039
     20 C         140.3730  142.9400  168.6857 C.ar    1  UNL1       -0.0028
     21 C         140.9180  143.6227  169.9050 C.ar    1  UNL1        0.0020
     22 C         142.3341  143.3753  170.3333 C.ar    1  UNL1        0.0296
     23 C         143.2052  142.4450  169.5422 C.ar    1  UNL1        0.1399
     24 F         144.6214  142.1975  169.9704 F       1  UNL1       -0.2042
     25 C         142.6603  141.7622  168.3229 C.ar    1  UNL1        0.0267
@<TRIPOS>BOND
     1     1     2    1
     2     2     3   ar
     3     3     4   ar
     4     4     5   ar
     5     5     6   ar
     6     6     7   ar
     7     7     8   ar
     8     8     9   ar
     9     9    10   ar
    10     7    11    1
    11    11    12    1
    12    12    13    1
    13    13    18    1
    14    18    19    1
    15    19    20   ar
    16    20    21   ar
    17    21    22   ar
    18    22    23   ar
    19    23    24    1
    20    23    25   ar
    21    13    14    1
    22    14    15    1
    23    10     2   ar
    24    25    19   ar
    25     9     4   ar
    26    15     6    1
    27     1    16    1
    28     1    17    1
@<TRIPOS>MOLECULE
*****
 25 28 0 0 0
SMALL
GASTEIGER

@<TRIPOS>ATOM
      1 N         141.6696  146.2719  157.1417 N.pl3   1  UNL1       -0.3375
      2 C         141.5466  145.4434  158.3861 C.ar    1  UNL1        0.1567
      3 N         142.5837  144.5036  158.9258 N.ar    1  UNL1       -0.2245
      4 C         142.0430  143.8887  160.1825 C.ar    1  UNL1        0.0889
      5 C         142.6222  142.8913  161.1416 C.ar    1  UNL1        0.0151
      6 C         141.8300  142.4538  162.3379 C.ar    1  UNL1       -0.0232
      7 C         140.4588  143.0135  162.5750 C.ar    1  UNL1       -0.0241
      8 C         139.8796  144.0109  161.6160 C.ar    1  UNL1        0.0035
      9 C         140.6717  144.4485  160.4197 C.ar    1  UNL1        0.0494
     10 S         140.3650  145.4093  159.3094 S.2     1  UNL1       -0.0520
     11 C         139.5076  142.7148  163.6958 C.3     1  UNL1        0.0434
     12 C         139.6929  141.7825  164.8563 C.3     1  UNL1        0.0771
     13 N         140.8750  140.9188  165.1825 N.3     1  UNL1       -0.2683
     14 C         142.1638  140.7739  164.4289 C.3     1  UNL1        0.0771
     15 C         142.5889  141.4570  163.1630 C.3     1  UNL1        0.0434
     16 H         142.4894  146.2256  156.5986 H       1  UNL1        0.1442
     17 H         140.9305  146.8619  156.8682 H       1  UNL1        0.1442
     18 C         140.7520  140.0904  166.4269 C.3     1  UNL1        0.0992
     19 C         140.3639  140.7373  167.7234 C.ar    1  UNL1       -0.0039
     20 C         139.4575  140.0186  168.6785 C.ar    1  UNL1       -0.0028
     21 C         139.0694  140.6655  169.9749 C.ar    1  UNL1        0.0020
     22 C         139.5877  142.0311  170.3164 C.ar    1  UNL1        0.0296
     23 C         140.4941  142.7498  169.3614 C.ar    1  UNL1        0.1399
     24 F         141.0123  144.1154  169.7029 F       1  UNL1       -0.2042
     25 C         140.8822  142.1029  168.0649 C.ar    1  UNL1        0.0267
@<TRIPOS>BOND
     1     1     2    1
     2     2     3   ar
     3     3     4   ar
     4     4     5   ar
     5     5     6   ar
     6     6     7   ar
     7     7     8   ar
     8     8     9   ar
     9     9    10   ar
    10     7    11    1
    11    11    12    1
    12    12    13    1
    13    13    18    1
    14    18    19    1
    15    19    20   ar
    16    20    21   ar
    17    21    22   ar
    18    22    23   ar
    19    23    24    1
    20    23    25   ar
    21    13    14    1
    22    14    15    1
    23    10     2   ar
    24    25    19   ar
    25     9     4   ar
    26    15     6    1
    27     1    16    1
    28     1    17    1
@<TRIPOS>MOLECULE
*****
 25 28 0 0 0
SMALL
GASTEIGER

@<TRIPOS>ATOM
      1 N         142.5987  140.6167  171.5752 N.pl3   1  UNL1       -0.3375
      2 C         142.1173  140.2818  170.1945 C.ar    1  UNL1        0.1567
      3 N         142.9618  139.7663  169.0671 N.ar    1  UNL1       -0.2245
      4 C         142.0733  139.5695  167.8748 C.ar    1  UNL1        0.0889
      5 C         142.3533  139.0825  166.4839 C.ar    1  UNL1        0.0151
      6 C         141.2395  138.9894  165.4835 C.ar    1  UNL1       -0.0232
      7 C         139.8459  139.3832  165.8739 C.ar    1  UNL1       -0.0241
      8 C         139.5659  139.8702  167.2647 C.ar    1  UNL1        0.0035
      9 C         140.6796  139.9633  168.2652 C.ar    1  UNL1        0.0494
     10 S         140.7068  140.4036  169.6989 S.2     1  UNL1       -0.0520
     11 C         138.6005  139.3669  165.0379 C.3     1  UNL1        0.0434
     12 C         138.4413  138.9527  163.6050 C.3     1  UNL1        0.0771
     13 N         139.4881  138.4526  162.6543 N.3     1  UNL1       -0.2683
     14 C         140.9527  138.2430  162.9015 C.3     1  UNL1        0.0771
     15 C         141.7322  138.4819  164.1607 C.3     1  UNL1        0.0434
     16 H         143.5488  140.5028  171.8063 H       1  UNL1        0.1442
     17 H         141.9644  140.9505  172.2501 H       1  UNL1        0.1442
     18 C         139.0068  138.1176  161.2737 C.3     1  UNL1        0.0992
     19 C         139.2732  139.0599  160.1373 C.ar    1  UNL1       -0.0039
     20 C         140.3265  138.7306  159.1212 C.ar    1  UNL1       -0.0028
     21 C         140.5929  139.6727  157.9849 C.ar    1  UNL1        0.0020
     22 C         139.8061  140.9441  157.8645 C.ar    1  UNL1        0.0296
     23 C         138.7528  141.2733  158.8805 C.ar    1  UNL1        0.1399
     24 F         137.9660  142.5448  158.7601 F       1  UNL1       -0.2042
     25 C         138.4864  140.3313  160.0169 C.ar    1  UNL1        0.0267
@<TRIPOS>BOND
     1     1     2    1
     2     2     3   ar
     3     3     4   ar
     4     4     5   ar
     5     5     6   ar
     6     6     7   ar
     7     7     8   ar
     8     8     9   ar
     9     9    10   ar
    10     7    11    1
    11    11    12    1
    12    12    13    1
    13    13    18    1
    14    18    19    1
    15    19    20   ar
    16    20    21   ar
    17    21    22   ar
    18    22    23   ar
    19    23    24    1
    20    23    25   ar
    21    13    14    1
    22    14    15    1
    23    10     2   ar
    24    25    19   ar
    25     9     4   ar
    26    15     6    1
    27     1    16    1
    28     1    17    1
@<TRIPOS>MOLECULE
*****
 25 28 0 0 0
SMALL
GASTEIGER

@<TRIPOS>ATOM
      1 N         140.1427  142.5190  171.4776 N.pl3   1  UNL1       -0.3375
      2 C         140.0578  141.9157  170.1068 C.ar    1  UNL1        0.1567
      3 N         139.3000  140.6759  169.7345 N.ar    1  UNL1       -0.2245
      4 C         139.4897  140.4404  168.2653 C.ar    1  UNL1        0.0889
      5 C         138.9786  139.3708  167.3461 C.ar    1  UNL1        0.0151
      6 C         139.3426  139.3956  165.8911 C.ar    1  UNL1       -0.0232
      7 C         140.2176  140.4897  165.3554 C.ar    1  UNL1       -0.0241
      8 C         140.7286  141.5593  166.2746 C.ar    1  UNL1        0.0035
      9 C         140.3647  141.5346  167.7296 C.ar    1  UNL1        0.0494
     10 S         140.7158  142.4464  168.8677 S.2     1  UNL1       -0.0520
     11 C         140.6968  140.7004  163.9497 C.3     1  UNL1        0.0434
     12 C         140.4193  139.8687  162.7325 C.3     1  UNL1        0.0771
     13 N         139.5941  138.6212  162.6205 N.3     1  UNL1       -0.2683
     14 C         138.8426  137.8971  163.6979 C.3     1  UNL1        0.0771
     15 C         138.7306  138.2417  165.1535 C.3     1  UNL1        0.0434
     16 H         139.6732  142.0950  172.2319 H       1  UNL1        0.1442
     17 H         140.6680  143.3389  171.6229 H       1  UNL1        0.1442
     18 C         139.5092  138.0180  161.2498 C.3     1  UNL1        0.0992
     19 C         139.6462  138.8898  160.0368 C.ar    1  UNL1       -0.0039
     20 C         140.9243  138.8869  159.2515 C.ar    1  UNL1       -0.0028
     21 C         141.0613  139.7586  158.0386 C.ar    1  UNL1        0.0020
     22 C         139.9203  140.6333  157.6109 C.ar    1  UNL1        0.0296
     23 C         138.6422  140.6363  158.3961 C.ar    1  UNL1        0.1399
     24 F         137.5012  141.5110  157.9684 F       1  UNL1       -0.2042
     25 C         138.5052  139.7645  159.6090 C.ar    1  UNL1        0.0267
@<TRIPOS>BOND
     1     1     2    1
     2     2     3   ar
     3     3     4   ar
     4     4     5   ar
     5     5     6   ar
     6     6     7   ar
     7     7     8   ar
     8     8     9   ar
     9     9    10   ar
    10     7    11    1
    11    11    12    1
    12    12    13    1
    13    13    18    1
    14    18    19    1
    15    19    20   ar
    16    20    21   ar
    17    21    22   ar
    18    22    23   ar
    19    23    24    1
    20    23    25   ar
    21    13    14    1
    22    14    15    1
    23    10     2   ar
    24    25    19   ar
    25     9     4   ar
    26    15     6    1
    27     1    16    1
    28     1    17    1
@<TRIPOS>MOLECULE
*****
 25 28 0 0 0
SMALL
GASTEIGER

@<TRIPOS>ATOM
      1 N         143.4128  138.7154  157.0569 N.pl3   1  UNL1       -0.3375
      2 C         143.0773  138.8621  158.5115 C.ar    1  UNL1        0.1567
      3 N         144.0528  139.1324  159.6186 N.ar    1  UNL1       -0.2245
      4 C         143.2857  139.2017  160.9057 C.ar    1  UNL1        0.0889
      5 C         143.7199  139.4425  162.3211 C.ar    1  UNL1        0.0151
      6 C         142.7045  139.4558  163.4252 C.ar    1  UNL1       -0.0232
      7 C         141.2550  139.2284  163.1137 C.ar    1  UNL1       -0.0241
      8 C         140.8207  138.9875  161.6983 C.ar    1  UNL1        0.0035
      9 C         141.8361  138.9742  160.5942 C.ar    1  UNL1        0.0494
     10 S         141.7074  138.7643  159.1146 S.2     1  UNL1       -0.0520
     11 C         140.0888  139.2013  164.0568 C.3     1  UNL1        0.0434
     12 C         140.0843  139.3950  165.5443 C.3     1  UNL1        0.0771
     13 N         141.2446  139.6636  166.4559 N.3     1  UNL1       -0.2683
     14 C         142.6963  139.8049  166.1054 C.3     1  UNL1        0.0771
     15 C         143.3460  139.7124  164.7566 C.3     1  UNL1        0.0434
     16 H         144.3469  138.7965  156.7566 H       1  UNL1        0.1442
     17 H         142.6990  138.5379  156.4026 H       1  UNL1        0.1442
     18 C         140.9091  139.8103  167.9105 C.3     1  UNL1        0.0992
     19 C         141.4673  140.9594  168.6968 C.ar    1  UNL1       -0.0039
     20 C         142.8632  140.8878  169.2412 C.ar    1  UNL1       -0.0028
     21 C         143.4214  142.0367  170.0275 C.ar    1  UNL1        0.0020
     22 C         142.5837  143.2572  170.2694 C.ar    1  UNL1        0.0296
     23 C         141.1878  143.3289  169.7250 C.ar    1  UNL1        0.1399
     24 F         140.3501  144.5494  169.9669 F       1  UNL1       -0.2042
     25 C         140.6296  142.1799  168.9388 C.ar    1  UNL1        0.0267
@<TRIPOS>BOND
     1     1     2    1
     2     2     3   ar
     3     3     4   ar
     4     4     5   ar
     5     5     6   ar
     6     6     7   ar
     7     7     8   ar
     8     8     9   ar
     9     9    10   ar
    10     7    11    1
    11    11    12    1
    12    12    13    1
    13    13    18    1
    14    18    19    1
    15    19    20   ar
    16    20    21   ar
    17    21    22   ar
    18    22    23   ar
    19    23    24    1
    20    23    25   ar
    21    13    14    1
    22    14    15    1
    23    10     2   ar
    24    25    19   ar
    25     9     4   ar
    26    15     6    1
    27     1    16    1
    28     1    17    1
@<TRIPOS>MOLECULE
*****
 25 28 0 0 0
SMALL
GASTEIGER

@<TRIPOS>ATOM
      1 N         143.2304  143.2943  171.1172 N.pl3   1  UNL1       -0.3375
      2 C         142.5384  142.6693  169.9422 C.ar    1  UNL1        0.1567
      3 N         141.3957  143.2637  169.1734 N.ar    1  UNL1       -0.2245
      4 C         141.0187  142.3020  168.0858 C.ar    1  UNL1        0.0889
      5 C         139.9645  142.3551  167.0200 C.ar    1  UNL1        0.0151
      6 C         139.8201  141.2194  166.0507 C.ar    1  UNL1       -0.0232
      7 C         140.7298  140.0308  166.1473 C.ar    1  UNL1       -0.0241
      8 C         141.7839  139.9776  167.2130 C.ar    1  UNL1        0.0035
      9 C         141.9284  141.1132  168.1824 C.ar    1  UNL1        0.0494
     10 S         142.8676  141.3403  169.3297 S.2     1  UNL1       -0.0520
     11 C         140.7560  138.8009  165.2888 C.3     1  UNL1        0.0434
     12 C         139.8788  138.4561  164.1218 C.3     1  UNL1        0.0771
     13 N         138.7591  139.2560  163.5251 N.3     1  UNL1       -0.2683
     14 C         138.2397  140.5982  163.9479 C.3     1  UNL1        0.0771
     15 C         138.7119  141.4720  165.0719 C.3     1  UNL1        0.0434
     16 H         142.9405  144.1751  171.4479 H       1  UNL1        0.1442
     17 H         143.9746  142.8237  171.5576 H       1  UNL1        0.1442
     18 C         138.0671  138.6310  162.3501 C.3     1  UNL1        0.0992
     19 C         138.5034  138.9697  160.9554 C.ar    1  UNL1       -0.0039
     20 C         139.6902  138.2784  160.3522 C.ar    1  UNL1       -0.0028
     21 C         140.1265  138.6170  158.9577 C.ar    1  UNL1        0.0020
     22 C         139.3761  139.6468  158.1662 C.ar    1  UNL1        0.0296
     23 C         138.1893  140.3380  158.7694 C.ar    1  UNL1        0.1399
     24 F         137.4388  141.3678  157.9779 F       1  UNL1       -0.2042
     25 C         137.7529  139.9994  160.1640 C.ar    1  UNL1        0.0267
@<TRIPOS>BOND
     1     1     2    1
     2     2     3   ar
     3     3     4   ar
     4     4     5   ar
     5     5     6   ar
     6     6     7   ar
     7     7     8   ar
     8     8     9   ar
     9     9    10   ar
    10     7    11    1
    11    11    12    1
    12    12    13    1
    13    13    18    1
    14    18    19    1
    15    19    20   ar
    16    20    21   ar
    17    21    22   ar
    18    22    23   ar
    19    23    24    1
    20    23    25   ar
    21    13    14    1
    22    14    15    1
    23    10     2   ar
    24    25    19   ar
    25     9     4   ar
    26    15     6    1
    27     1    16    1
    28     1    17    1
