@<TRIPOS>MOLECULE
*****
 37 41 0 0 0
SMALL
GASTEIGER

@<TRIPOS>ATOM
      1 C         140.8796  138.9174  160.7736 C.3     1  UNL1        0.0801
      2 C         141.3767  140.2536  161.2396 C.3     1  UNL1        0.0248
      3 C         141.1446  140.6876  162.6566 C.3     1  UNL1        0.0277
      4 C         140.4154  139.7854  163.6074 C.ar    1  UNL1       -0.0263
      5 C         140.1833  140.2194  165.0244 C.ar    1  UNL1       -0.0075
      6 C         139.4541  139.3172  165.9753 C.ar    1  UNL1       -0.0065
      7 C         138.9570  137.9808  165.5092 C.ar    1  UNL1       -0.0033
      8 C         139.1891  137.5469  164.0923 C.ar    1  UNL1       -0.0048
      9 C         139.9183  138.4491  163.1414 C.ar    1  UNL1       -0.0245
     10 C         140.1504  138.0151  161.7245 C.3     1  UNL1        0.0458
     11 O         143.6694  138.3919  159.8036 O.2     1  UNL1       -0.2734
     12 C         142.5066  138.2206  158.8716 C.2     1  UNL1        0.2420
     13 C         142.7387  137.7865  157.4547 C.3     1  UNL1        0.1587
     14 N         141.5759  137.6152  156.5227 N.3     1  UNL1       -0.2632
     15 C         140.1809  137.8780  157.0076 C.3     1  UNL1        0.0942
     16 C         139.9489  138.3120  158.4246 C.3     1  UNL1        0.1107
     17 N         141.1116  138.4833  159.3566 N.am    1  UNL1       -0.2783
     18 C         141.8080  137.1812  155.1058 C.3     1  UNL1        0.0773
     19 C         142.9018  136.2046  154.7902 C.3     1  UNL1        0.0437
     20 C         142.8542  134.8163  155.3564 C.ar    1  UNL1       -0.0206
     21 C         143.7588  134.4378  156.4914 C.ar    1  UNL1       -0.0019
     22 C         143.7112  133.0496  157.0576 C.ar    1  UNL1        0.0293
     23 C         142.7589  132.0399  156.4887 C.ar    1  UNL1        0.1401
     24 F         142.7112  130.6516  157.0549 F       1  UNL1       -0.2042
     25 C         141.8542  132.4184  155.3537 C.ar    1  UNL1        0.0293
     26 C         141.9019  133.8066  154.7875 C.ar    1  UNL1       -0.0019
     27 C         139.2220  139.7512  167.3922 C.3     1  UNL1        0.0991
     28 N         140.2614  140.5619  168.1082 N.3     1  UNL1       -0.2690
     29 C         140.0565  142.0341  168.3098 C.3     1  UNL1        0.0727
     30 C         141.0958  142.8448  169.0257 C.3     1  UNL1        0.0259
     31 C         142.3400  142.1834  169.5399 C.3     1  UNL1        0.0979
     32 C         142.5448  140.7112  169.3383 C.3     1  UNL1        0.0259
     33 C         141.5055  139.9004  168.6224 C.3     1  UNL1        0.0727
     34 C         143.3794  142.9941  170.2558 C.3     1  UNL1        0.3976
     35 F         144.4186  143.8048  170.9717 F       1  UNL1       -0.1701
     36 F         142.3500  144.0402  170.5656 F       1  UNL1       -0.1701
     37 F         144.4088  141.9480  169.9460 F       1  UNL1       -0.1701
@<TRIPOS>BOND
     1    11    12    2
     2    12    13    1
     3    13    14    1
     4    14    18    1
     5    18    19    1
     6    19    20    1
     7    20    21   ar
     8    21    22   ar
     9    22    23   ar
    10    23    24    1
    11    23    25   ar
    12    25    26   ar
    13    14    15    1
    14    15    16    1
    15    16    17    1
    16     1    17    1
    17     1     2    1
    18     2     3    1
    19     3     4    1
    20     4     5   ar
    21     5     6   ar
    22     6    27    1
    23    27    28    1
    24    28    29    1
    25    29    30    1
    26    30    31    1
    27    31    34    1
    28    34    35    1
    29    34    36    1
    30    34    37    1
    31    31    32    1
    32    32    33    1
    33     6     7   ar
    34     7     8   ar
    35     8     9   ar
    36     9    10    1
    37    17    12   am
    38    10     1    1
    39    26    20   ar
    40     9     4   ar
    41    33    28    1
@<TRIPOS>MOLECULE
*****
 37 41 0 0 0
SMALL
GASTEIGER

@<TRIPOS>ATOM
      1 C         139.7218  142.5519  159.4066 C.3     1  UNL1        0.0801
      2 C         139.1291  141.2098  159.7184 C.3     1  UNL1        0.0248
      3 C         138.0335  140.6553  158.8568 C.3     1  UNL1        0.0277
      4 C         137.5307  141.4431  157.6835 C.ar    1  UNL1       -0.0263
      5 C         136.4351  140.8886  156.8219 C.ar    1  UNL1       -0.0075
      6 C         135.9323  141.6763  155.6486 C.ar    1  UNL1       -0.0065
      7 C         136.5251  143.0185  155.3369 C.ar    1  UNL1       -0.0033
      8 C         137.6206  143.5730  156.1984 C.ar    1  UNL1       -0.0048
      9 C         138.1234  142.7852  157.3717 C.ar    1  UNL1       -0.0245
     10 C         139.2190  143.3396  158.2333 C.3     1  UNL1        0.0458
     11 O         139.0737  144.5219  161.5744 O.2     1  UNL1       -0.2734
     12 C         140.4934  144.0914  161.3521 C.2     1  UNL1        0.2420
     13 C         141.5889  144.6459  162.2136 C.3     1  UNL1        0.1587
     14 N         143.0085  144.2154  161.9913 N.3     1  UNL1       -0.2632
     15 C         143.3326  143.2304  160.9075 C.3     1  UNL1        0.0942
     16 C         142.2370  142.6759  160.0459 C.3     1  UNL1        0.1107
     17 N         140.8174  143.1064  160.2682 N.am    1  UNL1       -0.2783
     18 C         144.1040  144.7699  162.8529 C.3     1  UNL1        0.0773
     19 C         144.2915  144.2573  164.2501 C.3     1  UNL1        0.0437
     20 C         144.2091  142.7852  164.5263 C.ar    1  UNL1       -0.0206
     21 C         145.2239  141.8530  163.9338 C.ar    1  UNL1       -0.0019
     22 C         145.1414  140.3810  164.2101 C.ar    1  UNL1        0.0293
     23 C         144.0441  139.8412  165.0788 C.ar    1  UNL1        0.1401
     24 F         143.9617  138.3691  165.3550 F       1  UNL1       -0.2042
     25 C         143.0293  140.7735  165.6712 C.ar    1  UNL1        0.0293
     26 C         143.1118  142.2455  165.3950 C.ar    1  UNL1       -0.0019
     27 C         134.8367  141.1219  154.7870 C.3     1  UNL1        0.0991
     28 N         133.6289  140.4965  155.4195 N.3     1  UNL1       -0.2690
     29 C         133.7050  139.1006  155.9634 C.3     1  UNL1        0.0727
     30 C         132.4972  138.4752  156.5959 C.3     1  UNL1        0.0259
     31 C         131.2133  139.2457  156.6846 C.3     1  UNL1        0.0979
     32 C         131.1372  140.6416  156.1407 C.3     1  UNL1        0.0259
     33 C         132.3450  141.2670  155.5082 C.3     1  UNL1        0.0727
     34 C         130.0054  138.6204  157.3171 C.3     1  UNL1        0.3976
     35 F         128.7976  137.9950  157.9496 F       1  UNL1       -0.1701
     36 F         130.1870  137.4029  156.4600 F       1  UNL1       -0.1701
     37 F         129.8239  139.8378  158.1742 F       1  UNL1       -0.1701
@<TRIPOS>BOND
     1    11    12    2
     2    12    13    1
     3    13    14    1
     4    14    18    1
     5    18    19    1
     6    19    20    1
     7    20    21   ar
     8    21    22   ar
     9    22    23   ar
    10    23    24    1
    11    23    25   ar
    12    25    26   ar
    13    14    15    1
    14    15    16    1
    15    16    17    1
    16     1    17    1
    17     1     2    1
    18     2     3    1
    19     3     4    1
    20     4     5   ar
    21     5     6   ar
    22     6    27    1
    23    27    28    1
    24    28    29    1
    25    29    30    1
    26    30    31    1
    27    31    34    1
    28    34    35    1
    29    34    36    1
    30    34    37    1
    31    31    32    1
    32    32    33    1
    33     6     7   ar
    34     7     8   ar
    35     8     9   ar
    36     9    10    1
    37    17    12   am
    38    10     1    1
    39    26    20   ar
    40     9     4   ar
    41    33    28    1
@<TRIPOS>MOLECULE
*****
 37 41 0 0 0
SMALL
GASTEIGER

@<TRIPOS>ATOM
      1 C         139.9109  138.7428  159.5943 C.3     1  UNL1        0.0801
      2 C         138.7651  139.6660  159.8857 C.3     1  UNL1        0.0248
      3 C         138.3067  139.8695  161.2994 C.3     1  UNL1        0.0277
      4 C         138.9941  139.1497  162.4216 C.ar    1  UNL1       -0.0263
      5 C         138.5356  139.3532  163.8353 C.ar    1  UNL1       -0.0075
      6 C         139.2230  138.6334  164.9576 C.ar    1  UNL1       -0.0065
      7 C         140.3687  137.7101  164.6662 C.ar    1  UNL1       -0.0033
      8 C         140.8271  137.5067  163.2525 C.ar    1  UNL1       -0.0048
      9 C         140.1398  138.2265  162.1303 C.ar    1  UNL1       -0.0245
     10 C         140.5982  138.0230  160.7166 C.3     1  UNL1        0.0458
     11 O         142.5583  139.8373  158.7038 O.2     1  UNL1       -0.2734
     12 C         141.6930  139.0866  157.7354 C.2     1  UNL1        0.2420
     13 C         142.1515  138.8831  156.3217 C.3     1  UNL1        0.1587
     14 N         141.2862  138.1324  155.3533 N.3     1  UNL1       -0.2632
     15 C         139.9625  137.5852  155.7986 C.3     1  UNL1        0.0942
     16 C         139.5040  137.7887  157.2123 C.3     1  UNL1        0.1107
     17 N         140.3693  138.5393  158.1806 N.am    1  UNL1       -0.2783
     18 C         141.7447  137.9290  153.9397 C.3     1  UNL1        0.0773
     19 C         142.4732  136.6737  153.5609 C.3     1  UNL1        0.0437
     20 C         142.5455  135.5280  154.5264 C.ar    1  UNL1       -0.0206
     21 C         143.6876  135.4337  155.4942 C.ar    1  UNL1       -0.0019
     22 C         143.7597  134.2880  156.4596 C.ar    1  UNL1        0.0293
     23 C         142.6898  133.2366  156.4573 C.ar    1  UNL1        0.1401
     24 F         142.7621  132.0909  157.4228 F       1  UNL1       -0.2042
     25 C         141.5478  133.3310  155.4895 C.ar    1  UNL1        0.0293
     26 C         141.4756  134.4767  154.5240 C.ar    1  UNL1       -0.0019
     27 C         138.7646  138.8368  166.3713 C.3     1  UNL1        0.0991
     28 N         139.3521  139.9416  167.1986 N.3     1  UNL1       -0.2690
     29 C         140.1373  141.0363  166.5391 C.3     1  UNL1        0.0727
     30 C         140.7248  142.1410  167.3663 C.3     1  UNL1        0.0259
     31 C         140.5271  142.1510  168.8532 C.3     1  UNL1        0.0979
     32 C         139.7418  141.0563  169.5127 C.3     1  UNL1        0.0259
     33 C         139.1543  139.9516  168.6855 C.3     1  UNL1        0.0727
     34 C         141.1146  143.2558  169.6805 C.3     1  UNL1        0.3976
     35 F         141.7020  144.3605  170.5078 F       1  UNL1       -0.1701
     36 F         139.7712  143.5073  170.2985 F       1  UNL1       -0.1701
     37 F         142.4580  143.0042  169.0625 F       1  UNL1       -0.1701
@<TRIPOS>BOND
     1    11    12    2
     2    12    13    1
     3    13    14    1
     4    14    18    1
     5    18    19    1
     6    19    20    1
     7    20    21   ar
     8    21    22   ar
     9    22    23   ar
    10    23    24    1
    11    23    25   ar
    12    25    26   ar
    13    14    15    1
    14    15    16    1
    15    16    17    1
    16     1    17    1
    17     1     2    1
    18     2     3    1
    19     3     4    1
    20     4     5   ar
    21     5     6   ar
    22     6    27    1
    23    27    28    1
    24    28    29    1
    25    29    30    1
    26    30    31    1
    27    31    34    1
    28    34    35    1
    29    34    36    1
    30    34    37    1
    31    31    32    1
    32    32    33    1
    33     6     7   ar
    34     7     8   ar
    35     8     9   ar
    36     9    10    1
    37    17    12   am
    38    10     1    1
    39    26    20   ar
    40     9     4   ar
    41    33    28    1
@<TRIPOS>MOLECULE
*****
 37 41 0 0 0
SMALL
GASTEIGER

@<TRIPOS>ATOM
      1 C         139.0062  141.9343  159.9395 C.3     1  UNL1        0.0801
      2 C         138.1198  141.6300  158.7684 C.3     1  UNL1        0.0248
      3 C         138.1924  142.4772  157.5328 C.3     1  UNL1        0.0277
      4 C         139.1515  143.6287  157.4682 C.ar    1  UNL1       -0.0263
      5 C         139.2241  144.4760  156.2325 C.ar    1  UNL1       -0.0075
      6 C         140.1832  145.6275  156.1680 C.ar    1  UNL1       -0.0065
      7 C         141.0697  145.9318  157.3392 C.ar    1  UNL1       -0.0033
      8 C         140.9970  145.0845  158.5748 C.ar    1  UNL1       -0.0048
      9 C         140.0379  143.9330  158.6394 C.ar    1  UNL1       -0.0245
     10 C         139.9653  143.0858  159.8750 C.3     1  UNL1        0.0458
     11 O         137.3489  142.8273  162.2753 O.2     1  UNL1       -0.2734
     12 C         138.1050  141.5335  162.3431 C.2     1  UNL1        0.2420
     13 C         138.0323  140.6864  163.5788 C.3     1  UNL1        0.1587
     14 N         138.7884  139.3926  163.6467 N.3     1  UNL1       -0.2632
     15 C         139.6171  138.9460  162.4788 C.3     1  UNL1        0.0942
     16 C         139.6897  139.7933  161.2431 C.3     1  UNL1        0.1107
     17 N         138.9336  141.0870  161.1753 N.am    1  UNL1       -0.2783
     18 C         138.7158  138.5454  164.8824 C.3     1  UNL1        0.0773
     19 C         138.9483  139.1626  166.2295 C.3     1  UNL1        0.0437
     20 C         140.1399  140.0456  166.4544 C.ar    1  UNL1       -0.0206
     21 C         139.9481  141.5045  166.7453 C.ar    1  UNL1       -0.0019
     22 C         141.1397  142.3874  166.9702 C.ar    1  UNL1        0.0293
     23 C         142.5231  141.8114  166.9041 C.ar    1  UNL1        0.1401
     24 F         143.7147  142.6944  167.1289 F       1  UNL1       -0.2042
     25 C         142.7149  140.3524  166.6131 C.ar    1  UNL1        0.0293
     26 C         141.5234  139.4696  166.3883 C.ar    1  UNL1       -0.0019
     27 C         140.2558  146.4748  154.9323 C.3     1  UNL1        0.0991
     28 N         139.8170  147.9084  154.9791 N.3     1  UNL1       -0.2690
     29 C         138.8345  148.3585  156.0194 C.3     1  UNL1        0.0727
     30 C         138.3957  149.7921  156.0661 C.3     1  UNL1        0.0259
     31 C         138.9394  150.7756  155.0727 C.3     1  UNL1        0.0979
     32 C         139.9219  150.3255  154.0324 C.3     1  UNL1        0.0259
     33 C         140.3607  148.8920  153.9856 C.3     1  UNL1        0.0727
     34 C         138.5006  152.2093  155.1194 C.3     1  UNL1        0.3976
     35 F         138.0619  153.6429  155.1662 F       1  UNL1       -0.1701
     36 F         138.8918  152.2818  156.5657 F       1  UNL1       -0.1701
     37 F         138.1095  152.1368  153.6732 F       1  UNL1       -0.1701
@<TRIPOS>BOND
     1    11    12    2
     2    12    13    1
     3    13    14    1
     4    14    18    1
     5    18    19    1
     6    19    20    1
     7    20    21   ar
     8    21    22   ar
     9    22    23   ar
    10    23    24    1
    11    23    25   ar
    12    25    26   ar
    13    14    15    1
    14    15    16    1
    15    16    17    1
    16     1    17    1
    17     1     2    1
    18     2     3    1
    19     3     4    1
    20     4     5   ar
    21     5     6   ar
    22     6    27    1
    23    27    28    1
    24    28    29    1
    25    29    30    1
    26    30    31    1
    27    31    34    1
    28    34    35    1
    29    34    36    1
    30    34    37    1
    31    31    32    1
    32    32    33    1
    33     6     7   ar
    34     7     8   ar
    35     8     9   ar
    36     9    10    1
    37    17    12   am
    38    10     1    1
    39    26    20   ar
    40     9     4   ar
    41    33    28    1
@<TRIPOS>MOLECULE
*****
 37 41 0 0 0
SMALL
GASTEIGER

@<TRIPOS>ATOM
      1 C         140.4408  138.8803  159.3324 C.3     1  UNL1        0.0801
      2 C         140.7673  140.3324  159.5189 C.3     1  UNL1        0.0248
      3 C         140.5654  140.9807  160.8564 C.3     1  UNL1        0.0277
      4 C         140.0371  140.1769  162.0074 C.ar    1  UNL1       -0.0263
      5 C         139.8353  140.8252  163.3449 C.ar    1  UNL1       -0.0075
      6 C         139.3070  140.0214  164.4959 C.ar    1  UNL1       -0.0065
      7 C         138.9806  138.5692  164.3094 C.ar    1  UNL1       -0.0033
      8 C         139.1824  137.9210  162.9719 C.ar    1  UNL1       -0.0048
      9 C         139.7107  138.7248  161.8209 C.ar    1  UNL1       -0.0245
     10 C         139.9125  138.0765  160.4833 C.3     1  UNL1        0.0458
     11 O         143.1936  138.0681  158.4593 O.2     1  UNL1       -0.2734
     12 C         142.0190  137.8259  157.5582 C.2     1  UNL1        0.2420
     13 C         142.2209  137.1776  156.2208 C.3     1  UNL1        0.1587
     14 N         141.0463  136.9353  155.3197 N.3     1  UNL1       -0.2632
     15 C         139.6699  137.3415  155.7563 C.3     1  UNL1        0.0942
     16 C         139.4681  137.9898  157.0939 C.3     1  UNL1        0.1107
     17 N         140.6426  138.2320  157.9948 N.am    1  UNL1       -0.2783
     18 C         141.2482  136.2870  153.9823 C.3     1  UNL1        0.0773
     19 C         142.3943  135.3425  153.7720 C.3     1  UNL1        0.0437
     20 C         142.4355  134.0371  154.5098 C.ar    1  UNL1       -0.0206
     21 C         143.5300  133.7693  155.4998 C.ar    1  UNL1       -0.0019
     22 C         143.5711  132.4639  156.2375 C.ar    1  UNL1        0.0293
     23 C         142.5177  131.4263  155.9851 C.ar    1  UNL1        0.1401
     24 F         142.5589  130.1209  156.7229 F       1  UNL1       -0.2042
     25 C         141.4232  131.6941  154.9950 C.ar    1  UNL1        0.0293
     26 C         141.3821  132.9995  154.2574 C.ar    1  UNL1       -0.0019
     27 C         139.1052  140.6697  165.8334 C.3     1  UNL1        0.0991
     28 N         140.0640  140.3929  166.9534 N.3     1  UNL1       -0.2690
     29 C         141.5362  140.3122  166.6776 C.3     1  UNL1        0.0727
     30 C         142.4950  140.0355  167.7975 C.3     1  UNL1        0.0259
     31 C         141.9815  139.8394  169.1931 C.3     1  UNL1        0.0979
     32 C         140.5093  139.9201  169.4689 C.3     1  UNL1        0.0259
     33 C         139.5505  140.1968  168.3490 C.3     1  UNL1        0.0727
     34 C         142.9403  139.5627  170.3131 C.3     1  UNL1        0.3976
     35 F         143.8990  139.2859  171.4330 F       1  UNL1       -0.1701
     36 F         142.5058  138.1271  170.3303 F       1  UNL1       -0.1701
     37 F         143.3749  140.9982  170.2959 F       1  UNL1       -0.1701
@<TRIPOS>BOND
     1    11    12    2
     2    12    13    1
     3    13    14    1
     4    14    18    1
     5    18    19    1
     6    19    20    1
     7    20    21   ar
     8    21    22   ar
     9    22    23   ar
    10    23    24    1
    11    23    25   ar
    12    25    26   ar
    13    14    15    1
    14    15    16    1
    15    16    17    1
    16     1    17    1
    17     1     2    1
    18     2     3    1
    19     3     4    1
    20     4     5   ar
    21     5     6   ar
    22     6    27    1
    23    27    28    1
    24    28    29    1
    25    29    30    1
    26    30    31    1
    27    31    34    1
    28    34    35    1
    29    34    36    1
    30    34    37    1
    31    31    32    1
    32    32    33    1
    33     6     7   ar
    34     7     8   ar
    35     8     9   ar
    36     9    10    1
    37    17    12   am
    38    10     1    1
    39    26    20   ar
    40     9     4   ar
    41    33    28    1
@<TRIPOS>MOLECULE
*****
 37 41 0 0 0
SMALL
GASTEIGER

@<TRIPOS>ATOM
      1 C         140.8217  139.9629  159.6329 C.3     1  UNL1        0.0801
      2 C         142.2216  139.4899  159.8911 C.3     1  UNL1        0.0248
      3 C         142.8098  138.3944  159.0521 C.3     1  UNL1        0.0277
      4 C         141.9981  137.7719  157.9550 C.ar    1  UNL1       -0.0263
      5 C         142.5864  136.6764  157.1160 C.ar    1  UNL1       -0.0075
      6 C         141.7747  136.0538  156.0189 C.ar    1  UNL1       -0.0065
      7 C         140.3748  136.5268  155.7608 C.ar    1  UNL1       -0.0033
      8 C         139.7866  137.6223  156.5998 C.ar    1  UNL1       -0.0048
      9 C         140.5983  138.2449  157.6969 C.ar    1  UNL1       -0.0245
     10 C         140.0101  139.3403  158.5358 C.3     1  UNL1        0.0458
     11 O         139.3315  139.2902  162.1482 O.2     1  UNL1       -0.2734
     12 C         139.4884  140.7221  161.7296 C.2     1  UNL1        0.2420
     13 C         138.9001  141.8175  162.5685 C.3     1  UNL1        0.1587
     14 N         139.0570  143.2494  162.1499 N.3     1  UNL1       -0.2632
     15 C         139.8021  143.5857  160.8922 C.3     1  UNL1        0.0942
     16 C         140.3904  142.4902  160.0533 C.3     1  UNL1        0.1107
     17 N         140.2335  141.0584  160.4719 N.am    1  UNL1       -0.2783
     18 C         138.4687  144.3448  162.9889 C.3     1  UNL1        0.0773
     19 C         139.2564  144.9232  164.1268 C.3     1  UNL1        0.0437
     20 C         140.6836  144.5118  164.3366 C.ar    1  UNL1       -0.0206
     21 C         141.0021  143.3098  165.1755 C.ar    1  UNL1       -0.0019
     22 C         142.4292  142.8984  165.3853 C.ar    1  UNL1        0.0293
     23 C         143.5379  143.6891  164.7562 C.ar    1  UNL1        0.1401
     24 F         144.9650  143.2776  164.9660 F       1  UNL1       -0.2042
     25 C         143.2194  144.8911  163.9174 C.ar    1  UNL1        0.0293
     26 C         141.7923  145.3024  163.7076 C.ar    1  UNL1       -0.0019
     27 C         142.3629  134.9584  155.1800 C.3     1  UNL1        0.0991
     28 N         142.8451  133.6942  155.8277 N.3     1  UNL1       -0.2690
     29 C         144.0987  133.7045  156.6513 C.3     1  UNL1        0.0727
     30 C         144.5810  132.4405  157.2990 C.3     1  UNL1        0.0259
     31 C         143.8096  131.1661  157.1232 C.3     1  UNL1        0.0979
     32 C         142.5559  131.1558  156.2996 C.3     1  UNL1        0.0259
     33 C         142.0737  132.4199  155.6518 C.3     1  UNL1        0.0727
     34 C         144.2918  129.9020  157.7709 C.3     1  UNL1        0.3976
     35 F         144.7740  128.6380  158.4187 F       1  UNL1       -0.1701
     36 F         145.4067  130.6627  158.4253 F       1  UNL1       -0.1701
     37 F         143.1769  129.1413  157.1165 F       1  UNL1       -0.1701
@<TRIPOS>BOND
     1    11    12    2
     2    12    13    1
     3    13    14    1
     4    14    18    1
     5    18    19    1
     6    19    20    1
     7    20    21   ar
     8    21    22   ar
     9    22    23   ar
    10    23    24    1
    11    23    25   ar
    12    25    26   ar
    13    14    15    1
    14    15    16    1
    15    16    17    1
    16     1    17    1
    17     1     2    1
    18     2     3    1
    19     3     4    1
    20     4     5   ar
    21     5     6   ar
    22     6    27    1
    23    27    28    1
    24    28    29    1
    25    29    30    1
    26    30    31    1
    27    31    34    1
    28    34    35    1
    29    34    36    1
    30    34    37    1
    31    31    32    1
    32    32    33    1
    33     6     7   ar
    34     7     8   ar
    35     8     9   ar
    36     9    10    1
    37    17    12   am
    38    10     1    1
    39    26    20   ar
    40     9     4   ar
    41    33    28    1
@<TRIPOS>MOLECULE
*****
 37 41 0 0 0
SMALL
GASTEIGER

@<TRIPOS>ATOM
      1 C         139.8159  142.7235  159.6263 C.3     1  UNL1        0.0801
      2 C         141.1539  142.1048  159.9040 C.3     1  UNL1        0.0248
      3 C         141.3381  141.2234  161.1036 C.3     1  UNL1        0.0277
      4 C         140.1844  140.9606  162.0255 C.ar    1  UNL1       -0.0263
      5 C         140.3687  140.0791  163.2252 C.ar    1  UNL1       -0.0075
      6 C         139.2150  139.8164  164.1471 C.ar    1  UNL1       -0.0065
      7 C         137.8770  140.4351  163.8694 C.ar    1  UNL1       -0.0033
      8 C         137.6928  141.3166  162.6698 C.ar    1  UNL1       -0.0048
      9 C         138.8465  141.5793  161.7479 C.ar    1  UNL1       -0.0245
     10 C         138.6622  142.4608  160.5483 C.3     1  UNL1        0.0458
     11 O         140.9805  145.4882  159.6034 O.2     1  UNL1       -0.2734
     12 C         140.2140  144.9873  158.4152 C.2     1  UNL1        0.2420
     13 C         140.0297  145.8688  157.2157 C.3     1  UNL1        0.1587
     14 N         139.2632  145.3680  156.0275 N.3     1  UNL1       -0.2632
     15 C         138.6809  143.9857  156.0390 C.3     1  UNL1        0.0942
     16 C         138.8652  143.1042  157.2386 C.3     1  UNL1        0.1107
     17 N         139.6317  143.6050  158.4267 N.am    1  UNL1       -0.2783
     18 C         139.0789  146.2495  154.8279 C.3     1  UNL1        0.0773
     19 C         140.0356  147.3758  154.5709 C.3     1  UNL1        0.0437
     20 C         139.5742  148.7969  154.7039 C.ar    1  UNL1       -0.0206
     21 C         139.9446  149.8067  153.6583 C.ar    1  UNL1       -0.0019
     22 C         139.4831  151.2277  153.7913 C.ar    1  UNL1        0.0293
     23 C         138.6513  151.6390  154.9698 C.ar    1  UNL1        0.1401
     24 F         138.1899  153.0601  155.1027 F       1  UNL1       -0.2042
     25 C         138.2809  150.6293  156.0154 C.ar    1  UNL1        0.0293
     26 C         138.7424  149.2083  155.8824 C.ar    1  UNL1       -0.0019
     27 C         139.3992  138.9349  165.3467 C.3     1  UNL1        0.0991
     28 N         139.9451  139.5073  166.6213 N.3     1  UNL1       -0.2690
     29 C         139.0405  139.7092  167.8007 C.3     1  UNL1        0.0727
     30 C         139.5863  140.2815  169.0752 C.3     1  UNL1        0.0259
     31 C         141.0367  140.6519  169.1703 C.3     1  UNL1        0.0979
     32 C         141.9413  140.4501  167.9909 C.3     1  UNL1        0.0259
     33 C         141.3954  139.8777  166.7164 C.3     1  UNL1        0.0727
     34 C         141.5826  141.2243  170.4449 C.3     1  UNL1        0.3976
     35 F         142.1285  141.7966  171.7194 F       1  UNL1       -0.1701
     36 F         142.7935  141.7129  169.7068 F       1  UNL1       -0.1701
     37 F         140.3716  140.7357  171.1830 F       1  UNL1       -0.1701
@<TRIPOS>BOND
     1    11    12    2
     2    12    13    1
     3    13    14    1
     4    14    18    1
     5    18    19    1
     6    19    20    1
     7    20    21   ar
     8    21    22   ar
     9    22    23   ar
    10    23    24    1
    11    23    25   ar
    12    25    26   ar
    13    14    15    1
    14    15    16    1
    15    16    17    1
    16     1    17    1
    17     1     2    1
    18     2     3    1
    19     3     4    1
    20     4     5   ar
    21     5     6   ar
    22     6    27    1
    23    27    28    1
    24    28    29    1
    25    29    30    1
    26    30    31    1
    27    31    34    1
    28    34    35    1
    29    34    36    1
    30    34    37    1
    31    31    32    1
    32    32    33    1
    33     6     7   ar
    34     7     8   ar
    35     8     9   ar
    36     9    10    1
    37    17    12   am
    38    10     1    1
    39    26    20   ar
    40     9     4   ar
    41    33    28    1
@<TRIPOS>MOLECULE
*****
 37 41 0 0 0
SMALL
GASTEIGER

@<TRIPOS>ATOM
      1 C         139.6520  140.3899  159.2544 C.3     1  UNL1        0.0801
      2 C         140.8093  141.2609  159.6439 C.3     1  UNL1        0.0248
      3 C         141.5326  141.0141  160.9346 C.3     1  UNL1        0.0277
      4 C         141.0985  139.8962  161.8358 C.ar    1  UNL1       -0.0263
      5 C         141.8218  139.6495  163.1265 C.ar    1  UNL1       -0.0075
      6 C         141.3877  138.5316  164.0276 C.ar    1  UNL1       -0.0065
      7 C         140.2303  137.6606  163.6380 C.ar    1  UNL1       -0.0033
      8 C         139.5070  137.9074  162.3473 C.ar    1  UNL1       -0.0048
      9 C         139.9411  139.0252  161.4462 C.ar    1  UNL1       -0.0245
     10 C         139.2179  139.2720  160.1555 C.3     1  UNL1        0.0458
     11 O         137.9720  142.8532  158.9237 O.2     1  UNL1       -0.2734
     12 C         138.0886  141.8683  157.7983 C.2     1  UNL1        0.2420
     13 C         137.3653  142.1151  156.5076 C.3     1  UNL1        0.1587
     14 N         137.4820  141.1302  155.3822 N.3     1  UNL1       -0.2632
     15 C         138.3220  139.8985  155.5476 C.3     1  UNL1        0.0942
     16 C         139.0453  139.6518  156.8383 C.3     1  UNL1        0.1107
     17 N         138.9286  140.6366  157.9636 N.am    1  UNL1       -0.2783
     18 C         136.7587  141.3770  154.0916 C.3     1  UNL1        0.0773
     19 C         135.5729  140.5354  153.7236 C.3     1  UNL1        0.0437
     20 C         134.4139  140.4184  154.6687 C.ar    1  UNL1       -0.0206
     21 C         134.3666  139.2956  155.6621 C.ar    1  UNL1       -0.0019
     22 C         133.2077  139.1787  156.6072 C.ar    1  UNL1        0.0293
     23 C         132.0960  140.1845  156.5587 C.ar    1  UNL1        0.1401
     24 F         130.9370  140.0676  157.5038 F       1  UNL1       -0.2042
     25 C         132.1432  141.3073  155.5652 C.ar    1  UNL1        0.0293
     26 C         133.3022  141.4243  154.6202 C.ar    1  UNL1       -0.0019
     27 C         142.1110  138.2848  165.3183 C.3     1  UNL1        0.0991
     28 N         141.7698  139.0923  166.5356 N.3     1  UNL1       -0.2690
     29 C         140.4409  139.7816  166.6300 C.3     1  UNL1        0.0727
     30 C         140.0996  140.5890  167.8472 C.3     1  UNL1        0.0259
     31 C         141.0872  140.7071  168.9700 C.3     1  UNL1        0.0979
     32 C         142.4161  140.0177  168.8756 C.3     1  UNL1        0.0259
     33 C         142.7574  139.2103  167.6584 C.3     1  UNL1        0.0727
     34 C         140.7460  141.5145  170.1872 C.3     1  UNL1        0.3976
     35 F         140.4048  142.3219  171.4045 F       1  UNL1       -0.1701
     36 F         142.2047  141.7671  170.4286 F       1  UNL1       -0.1701
     37 F         139.2873  141.2619  169.9459 F       1  UNL1       -0.1701
@<TRIPOS>BOND
     1    11    12    2
     2    12    13    1
     3    13    14    1
     4    14    18    1
     5    18    19    1
     6    19    20    1
     7    20    21   ar
     8    21    22   ar
     9    22    23   ar
    10    23    24    1
    11    23    25   ar
    12    25    26   ar
    13    14    15    1
    14    15    16    1
    15    16    17    1
    16     1    17    1
    17     1     2    1
    18     2     3    1
    19     3     4    1
    20     4     5   ar
    21     5     6   ar
    22     6    27    1
    23    27    28    1
    24    28    29    1
    25    29    30    1
    26    30    31    1
    27    31    34    1
    28    34    35    1
    29    34    36    1
    30    34    37    1
    31    31    32    1
    32    32    33    1
    33     6     7   ar
    34     7     8   ar
    35     8     9   ar
    36     9    10    1
    37    17    12   am
    38    10     1    1
    39    26    20   ar
    40     9     4   ar
    41    33    28    1
@<TRIPOS>MOLECULE
*****
 37 41 0 0 0
SMALL
GASTEIGER

@<TRIPOS>ATOM
      1 C         142.2657  138.4961  158.2899 C.3     1  UNL1        0.0801
      2 C         142.0569  139.9805  158.2378 C.3     1  UNL1        0.0248
      3 C         142.1838  140.8001  159.4876 C.3     1  UNL1        0.0277
      4 C         142.5196  140.1352  160.7896 C.ar    1  UNL1       -0.0263
      5 C         142.6466  140.9548  162.0395 C.ar    1  UNL1       -0.0075
      6 C         142.9824  140.2899  163.3415 C.ar    1  UNL1       -0.0065
      7 C         143.1912  138.8053  163.3936 C.ar    1  UNL1       -0.0033
      8 C         143.0642  137.9858  162.1437 C.ar    1  UNL1       -0.0048
      9 C         142.7284  138.6507  160.8417 C.ar    1  UNL1       -0.0245
     10 C         142.6015  137.8312  159.5919 C.3     1  UNL1        0.0458
     11 O         139.5641  137.5695  157.3718 O.2     1  UNL1       -0.2734
     12 C         140.7879  137.2132  156.5809 C.2     1  UNL1        0.2420
     13 C         140.6609  136.3936  155.3311 C.3     1  UNL1        0.1587
     14 N         141.8847  136.0373  154.5402 N.3     1  UNL1       -0.2632
     15 C         143.2355  136.5006  154.9993 C.3     1  UNL1        0.0942
     16 C         143.3625  137.3202  156.2492 C.3     1  UNL1        0.1107
     17 N         142.1387  137.6765  157.0400 N.am    1  UNL1       -0.2783
     18 C         141.7577  135.2177  153.2904 C.3     1  UNL1        0.0773
     19 C         141.2965  133.7928  153.3717 C.3     1  UNL1        0.0437
     20 C         142.0747  132.7974  154.1803 C.ar    1  UNL1       -0.0206
     21 C         141.9226  132.7602  155.6721 C.ar    1  UNL1       -0.0019
     22 C         142.7008  131.7649  156.4806 C.ar    1  UNL1        0.0293
     23 C         143.6310  130.8069  155.7974 C.ar    1  UNL1        0.1401
     24 F         144.4093  129.8116  156.6060 F       1  UNL1       -0.2042
     25 C         143.7831  130.8441  154.3056 C.ar    1  UNL1        0.0293
     26 C         143.0049  131.8394  153.4971 C.ar    1  UNL1       -0.0019
     27 C         143.1093  141.1094  164.5913 C.3     1  UNL1        0.0991
     28 N         142.1481  140.9032  165.7243 N.3     1  UNL1       -0.2690
     29 C         142.6550  140.4743  167.0693 C.3     1  UNL1        0.0727
     30 C         141.6938  140.2681  168.2023 C.3     1  UNL1        0.0259
     31 C         140.2257  140.4908  167.9902 C.3     1  UNL1        0.0979
     32 C         139.7188  140.9197  166.6452 C.3     1  UNL1        0.0259
     33 C         140.6800  141.1259  165.5122 C.3     1  UNL1        0.0727
     34 C         139.2644  140.2847  169.1231 C.3     1  UNL1        0.3976
     35 F         138.3032  140.0785  170.2560 F       1  UNL1       -0.1701
     36 F         138.4049  139.4312  168.2385 F       1  UNL1       -0.1701
     37 F         140.1240  141.1381  170.0078 F       1  UNL1       -0.1701
@<TRIPOS>BOND
     1    11    12    2
     2    12    13    1
     3    13    14    1
     4    14    18    1
     5    18    19    1
     6    19    20    1
     7    20    21   ar
     8    21    22   ar
     9    22    23   ar
    10    23    24    1
    11    23    25   ar
    12    25    26   ar
    13    14    15    1
    14    15    16    1
    15    16    17    1
    16     1    17    1
    17     1     2    1
    18     2     3    1
    19     3     4    1
    20     4     5   ar
    21     5     6   ar
    22     6    27    1
    23    27    28    1
    24    28    29    1
    25    29    30    1
    26    30    31    1
    27    31    34    1
    28    34    35    1
    29    34    36    1
    30    34    37    1
    31    31    32    1
    32    32    33    1
    33     6     7   ar
    34     7     8   ar
    35     8     9   ar
    36     9    10    1
    37    17    12   am
    38    10     1    1
    39    26    20   ar
    40     9     4   ar
    41    33    28    1
