@<TRIPOS>MOLECULE
*****
 27 31 0 0 0
SMALL
GASTEIGER

@<TRIPOS>ATOM
      1 C         140.9138  142.2466  166.8334 C.3     1  UNL1        0.0253
      2 C         140.1233  140.9718  166.8264 C.3     1  UNL1        0.0205
      3 C         139.2911  140.3935  165.7207 C.3     1  UNL1        0.0605
      4 C         139.0435  140.9471  164.3487 C.3     1  UNL1        0.0834
      5 N         139.5672  142.2160  163.7438 N.3     1  UNL1       -0.2964
      6 C         140.4677  143.2443  164.3613 C.3     1  UNL1        0.0692
      7 C         141.0670  143.2580  165.7363 C.3     1  UNL1        0.0239
      8 C         140.2572  142.3051  165.2215 C.3     1  UNL1        0.0253
      9 C         139.7869  141.5465  165.2173 C.3     1  UNL1        0.0205
     10 H         138.7312  142.7358  163.4767 H       1  UNL1        0.1233
     11 C         143.1164  143.1575  170.6504 C.ar    1  UNL1       -0.0000
     12 C         141.6845  143.5756  170.4927 C.ar    1  UNL1       -0.0003
     13 C         140.9503  143.2719  169.2203 C.ar    1  UNL1       -0.0043
     14 C         141.6479  142.5502  168.1057 C.ar    1  UNL1       -0.0224
     15 C         143.0799  142.1321  168.2634 C.ar    1  UNL1       -0.0043
     16 C         143.8141  142.4358  169.5357 C.ar    1  UNL1       -0.0003
     17 C         140.1863  143.4824  163.3643 C.ar    1  UNL1       -0.0224
     18 C         139.5611  144.8459  163.3641 C.ar    1  UNL1       -0.0043
     19 C         139.5127  145.6485  162.0978 C.ar    1  UNL1       -0.0003
     20 C         140.0895  145.0878  160.8318 C.ar    1  UNL1       -0.0000
     21 C         140.7147  143.7242  160.8321 C.ar    1  UNL1       -0.0003
     22 C         140.7631  142.9216  162.0983 C.ar    1  UNL1       -0.0043
     23 N         138.6171  139.0889  166.0273 N.3     1  UNL1       -0.2739
     24 C         137.6819  138.8271  167.1705 C.3     1  UNL1        0.0721
     25 C         137.2468  137.3935  167.0944 C.3     1  UNL1        0.0188
     26 C         137.9131  136.7695  165.9042 C.3     1  UNL1        0.0188
     27 C         138.7600  137.8173  165.2447 C.3     1  UNL1        0.0721
@<TRIPOS>BOND
     1    11    12   ar
     2    12    13   ar
     3    13    14   ar
     4    14     1    1
     5     1     2    1
     6     2     3    1
     7     3    23    1
     8    23    24    1
     9    24    25    1
    10    25    26    1
    11    26    27    1
    12     3     4    1
    13     4     5    1
    14     5     6    1
    15     6     7    1
    16     7     8    1
    17     8    17    1
    18    17    18   ar
    19    18    19   ar
    20    19    20   ar
    21    20    21   ar
    22    21    22   ar
    23     8     9    1
    24    14    15   ar
    25    15    16   ar
    26    16    11   ar
    27     7     1    1
    28    22    17   ar
    29     9     3    1
    30    27    23    1
    31     5    10    1
@<TRIPOS>MOLECULE
*****
 27 31 0 0 0
SMALL
GASTEIGER

@<TRIPOS>ATOM
      1 C         141.0269  142.3320  164.4785 C.3     1  UNL1        0.0253
      2 C         141.5627  141.2374  163.6041 C.3     1  UNL1        0.0205
      3 C         142.2469  139.9660  164.0105 C.3     1  UNL1        0.0605
      4 C         142.5643  139.4751  165.3920 C.3     1  UNL1        0.0834
      5 N         142.2759  140.1345  166.7081 N.3     1  UNL1       -0.2964
      6 C         141.5989  141.4475  166.9677 C.3     1  UNL1        0.0692
      7 C         141.0431  142.4256  165.9755 C.3     1  UNL1        0.0239
      8 C         141.6474  141.2492  165.6931 C.3     1  UNL1        0.0253
      9 C         141.9662  140.5978  165.1727 C.3     1  UNL1        0.0205
     10 H         143.1888  140.2251  167.1539 H       1  UNL1        0.1233
     11 C         139.1190  145.7930  162.3264 C.ar    1  UNL1       -0.0000
     12 C         138.2639  144.6975  162.8909 C.ar    1  UNL1       -0.0003
     13 C         138.8999  143.5438  163.6083 C.ar    1  UNL1       -0.0043
     14 C         140.3910  143.4856  163.7612 C.ar    1  UNL1       -0.0224
     15 C         141.2461  144.5812  163.1967 C.ar    1  UNL1       -0.0043
     16 C         140.6100  145.7349  162.4793 C.ar    1  UNL1       -0.0003
     17 C         141.8983  140.9503  167.8583 C.ar    1  UNL1       -0.0224
     18 C         143.0317  141.6161  168.5808 C.ar    1  UNL1       -0.0043
     19 C         143.2028  141.4123  170.0571 C.ar    1  UNL1       -0.0003
     20 C         142.2406  140.5428  170.8107 C.ar    1  UNL1       -0.0000
     21 C         141.1072  139.8769  170.0880 C.ar    1  UNL1       -0.0003
     22 C         140.9361  140.0807  168.6118 C.ar    1  UNL1       -0.0043
     23 N         142.6696  139.0664  162.8871 N.3     1  UNL1       -0.2739
     24 C         141.7556  138.2684  162.0051 C.3     1  UNL1        0.0721
     25 C         142.6015  137.5156  161.0213 C.3     1  UNL1        0.0188
     26 C         144.0382  137.8483  161.2953 C.3     1  UNL1        0.0188
     27 C         144.0803  138.8067  162.4485 C.3     1  UNL1        0.0721
@<TRIPOS>BOND
     1    11    12   ar
     2    12    13   ar
     3    13    14   ar
     4    14     1    1
     5     1     2    1
     6     2     3    1
     7     3    23    1
     8    23    24    1
     9    24    25    1
    10    25    26    1
    11    26    27    1
    12     3     4    1
    13     4     5    1
    14     5     6    1
    15     6     7    1
    16     7     8    1
    17     8    17    1
    18    17    18   ar
    19    18    19   ar
    20    19    20   ar
    21    20    21   ar
    22    21    22   ar
    23     8     9    1
    24    14    15   ar
    25    15    16   ar
    26    16    11   ar
    27     7     1    1
    28    22    17   ar
    29     9     3    1
    30    27    23    1
    31     5    10    1
@<TRIPOS>MOLECULE
*****
 27 31 0 0 0
SMALL
GASTEIGER

@<TRIPOS>ATOM
      1 C         142.2050  140.4589  163.6217 C.3     1  UNL1        0.0253
      2 C         141.5254  141.7311  163.2100 C.3     1  UNL1        0.0205
      3 C         141.1082  142.8886  164.0679 C.3     1  UNL1        0.0605
      4 C         141.2676  143.0598  165.5496 C.3     1  UNL1        0.0834
      5 N         141.8836  142.1157  166.5392 N.3     1  UNL1       -0.2964
      6 C         142.4923  140.7674  166.2915 C.3     1  UNL1        0.0692
      7 C         142.6354  140.0300  164.9932 C.3     1  UNL1        0.0239
      8 C         142.0770  141.2492  165.1683 C.3     1  UNL1        0.0253
      9 C         141.6726  142.0062  164.9233 C.3     1  UNL1        0.0205
     10 H         141.1445  141.9412  167.2201 H       1  UNL1        0.1233
     11 C         143.0671  137.5435  160.3039 C.ar    1  UNL1       -0.0000
     12 C         144.0843  137.7754  161.3817 C.ar    1  UNL1       -0.0003
     13 C         143.7969  138.7473  162.4877 C.ar    1  UNL1       -0.0043
     14 C         142.4924  139.4871  162.5158 C.ar    1  UNL1       -0.0224
     15 C         141.4752  139.2552  161.4380 C.ar    1  UNL1       -0.0043
     16 C         141.7625  138.2834  160.3321 C.ar    1  UNL1       -0.0003
     17 C         142.5206  141.0553  167.3144 C.ar    1  UNL1       -0.0224
     18 C         142.1668  139.7924  168.0422 C.ar    1  UNL1       -0.0043
     19 C         142.4692  139.6602  169.5055 C.ar    1  UNL1       -0.0003
     20 C         143.1254  140.7909  170.2409 C.ar    1  UNL1       -0.0000
     21 C         143.4793  142.0538  169.5130 C.ar    1  UNL1       -0.0003
     22 C         143.1768  142.1860  168.0497 C.ar    1  UNL1       -0.0043
     23 N         140.4437  144.0253  163.3492 N.3     1  UNL1       -0.2739
     24 C         138.9652  144.2338  163.2061 C.3     1  UNL1        0.0721
     25 C         138.7487  145.4904  162.4160 C.3     1  UNL1        0.0188
     26 C         140.0933  146.0584  162.0709 C.3     1  UNL1        0.0188
     27 C         141.1410  145.1529  162.6476 C.3     1  UNL1        0.0721
@<TRIPOS>BOND
     1    11    12   ar
     2    12    13   ar
     3    13    14   ar
     4    14     1    1
     5     1     2    1
     6     2     3    1
     7     3    23    1
     8    23    24    1
     9    24    25    1
    10    25    26    1
    11    26    27    1
    12     3     4    1
    13     4     5    1
    14     5     6    1
    15     6     7    1
    16     7     8    1
    17     8    17    1
    18    17    18   ar
    19    18    19   ar
    20    19    20   ar
    21    20    21   ar
    22    21    22   ar
    23     8     9    1
    24    14    15   ar
    25    15    16   ar
    26    16    11   ar
    27     7     1    1
    28    22    17   ar
    29     9     3    1
    30    27    23    1
    31     5    10    1
@<TRIPOS>MOLECULE
*****
 27 31 0 0 0
SMALL
GASTEIGER

@<TRIPOS>ATOM
      1 C         141.6725  141.7676  164.6786 C.3     1  UNL1        0.0253
      2 C         140.6917  141.0373  163.8097 C.3     1  UNL1        0.0205
      3 C         139.6575  140.0278  164.2110 C.3     1  UNL1        0.0605
      4 C         139.3484  139.4991  165.5804 C.3     1  UNL1        0.0834
      5 N         139.9974  139.8495  166.8866 N.3     1  UNL1       -0.2964
      6 C         141.1156  140.8150  167.1460 C.3     1  UNL1        0.0692
      7 C         141.8611  141.6687  166.1634 C.3     1  UNL1        0.0239
      8 C         140.8557  140.8093  165.8816 C.3     1  UNL1        0.0253
      9 C         140.2721  140.3748  165.3646 C.3     1  UNL1        0.0205
     10 H         140.3392  138.9594  167.2490 H       1  UNL1        0.1233
     11 C         144.4108  144.6343  162.5492 C.ar    1  UNL1       -0.0000
     12 C         143.4537  145.1418  163.5868 C.ar    1  UNL1       -0.0003
     13 C         142.5409  144.1862  164.2966 C.ar    1  UNL1       -0.0043
     14 C         142.5852  142.7231  163.9688 C.ar    1  UNL1       -0.0224
     15 C         143.5423  142.2156  162.9313 C.ar    1  UNL1       -0.0043
     16 C         144.4551  143.1712  162.2215 C.ar    1  UNL1       -0.0003
     17 C         140.7651  140.3372  168.0285 C.ar    1  UNL1       -0.0224
     18 C         139.5360  140.6748  168.8193 C.ar    1  UNL1       -0.0043
     19 C         139.4743  140.3529  170.2831 C.ar    1  UNL1       -0.0003
     20 C         140.6414  139.6935  170.9560 C.ar    1  UNL1       -0.0000
     21 C         141.8705  139.3560  170.1651 C.ar    1  UNL1       -0.0003
     22 C         141.9323  139.6779  168.7013 C.ar    1  UNL1       -0.0043
     23 N         138.8217  139.4736  163.0955 N.3     1  UNL1       -0.2739
     24 C         138.7025  138.0267  162.7183 C.3     1  UNL1        0.0721
     25 C         137.7655  137.9277  161.5511 C.3     1  UNL1        0.0188
     26 C         137.3056  139.3134  161.2070 C.3     1  UNL1        0.0188
     27 C         137.9584  140.2688  162.1615 C.3     1  UNL1        0.0721
@<TRIPOS>BOND
     1    11    12   ar
     2    12    13   ar
     3    13    14   ar
     4    14     1    1
     5     1     2    1
     6     2     3    1
     7     3    23    1
     8    23    24    1
     9    24    25    1
    10    25    26    1
    11    26    27    1
    12     3     4    1
    13     4     5    1
    14     5     6    1
    15     6     7    1
    16     7     8    1
    17     8    17    1
    18    17    18   ar
    19    18    19   ar
    20    19    20   ar
    21    20    21   ar
    22    21    22   ar
    23     8     9    1
    24    14    15   ar
    25    15    16   ar
    26    16    11   ar
    27     7     1    1
    28    22    17   ar
    29     9     3    1
    30    27    23    1
    31     5    10    1
@<TRIPOS>MOLECULE
*****
 27 31 0 0 0
SMALL
GASTEIGER

@<TRIPOS>ATOM
      1 C         139.9905  140.3771  164.3889 C.3     1  UNL1        0.0253
      2 C         140.9812  141.4098  163.9392 C.3     1  UNL1        0.0205
      3 C         141.9701  142.1788  164.7641 C.3     1  UNL1        0.0605
      4 C         142.2129  142.1050  166.2425 C.3     1  UNL1        0.0834
      5 N         141.5264  141.2439  167.2611 N.3     1  UNL1       -0.2964
      6 C         140.4279  140.2442  167.0528 C.3     1  UNL1        0.0692
      7 C         139.7443  139.8583  165.7746 C.3     1  UNL1        0.0239
      8 C         140.7342  140.7691  165.9140 C.3     1  UNL1        0.0253
      9 C         141.3236  141.3837  165.6465 C.3     1  UNL1        0.0205
     10 H         141.1458  141.9042  167.9391 H       1  UNL1        0.1233
     11 C         137.4172  138.6004  161.1529 C.ar    1  UNL1       -0.0000
     12 C         138.1586  137.7030  162.0990 C.ar    1  UNL1       -0.0003
     13 C         139.0164  138.2953  163.1777 C.ar    1  UNL1       -0.0043
     14 C         139.1328  139.7849  163.3103 C.ar    1  UNL1       -0.0224
     15 C         138.3913  140.6823  162.3642 C.ar    1  UNL1       -0.0043
     16 C         137.5335  140.0900  161.2855 C.ar    1  UNL1       -0.0003
     17 C         140.7315  140.3234  168.0685 C.ar    1  UNL1       -0.0224
     18 C         141.9395  139.7055  168.7079 C.ar    1  UNL1       -0.0043
     19 C         141.9377  139.4016  170.1768 C.ar    1  UNL1       -0.0003
     20 C         140.7280  139.7155  171.0062 C.ar    1  UNL1       -0.0000
     21 C         139.5200  140.3334  170.3667 C.ar    1  UNL1       -0.0003
     22 C         139.5218  140.6373  168.8978 C.ar    1  UNL1       -0.0043
     23 N         142.8302  143.1500  164.0111 N.3     1  UNL1       -0.2739
     24 C         143.9294  142.7960  163.0539 C.3     1  UNL1        0.0721
     25 C         144.5207  144.0729  162.5343 C.3     1  UNL1        0.0188
     26 C         143.7869  145.2160  163.1704 C.3     1  UNL1        0.0188
     27 C         142.7421  144.6457  164.0831 C.3     1  UNL1        0.0721
@<TRIPOS>BOND
     1    11    12   ar
     2    12    13   ar
     3    13    14   ar
     4    14     1    1
     5     1     2    1
     6     2     3    1
     7     3    23    1
     8    23    24    1
     9    24    25    1
    10    25    26    1
    11    26    27    1
    12     3     4    1
    13     4     5    1
    14     5     6    1
    15     6     7    1
    16     7     8    1
    17     8    17    1
    18    17    18   ar
    19    18    19   ar
    20    19    20   ar
    21    20    21   ar
    22    21    22   ar
    23     8     9    1
    24    14    15   ar
    25    15    16   ar
    26    16    11   ar
    27     7     1    1
    28    22    17   ar
    29     9     3    1
    30    27    23    1
    31     5    10    1
@<TRIPOS>MOLECULE
*****
 27 31 0 0 0
SMALL
GASTEIGER

@<TRIPOS>ATOM
      1 C         140.0361  139.5501  163.3407 C.3     1  UNL1        0.0253
      2 C         140.6995  140.8821  163.5299 C.3     1  UNL1        0.0205
      3 C         141.5408  141.6544  162.5576 C.3     1  UNL1        0.0605
      4 C         141.9267  141.2855  161.1557 C.3     1  UNL1        0.0834
      5 N         141.5664  140.0531  160.3801 N.3     1  UNL1       -0.2964
      6 C         140.7314  138.8854  160.8148 C.3     1  UNL1        0.0692
      7 C         140.0503  138.6614  162.1324 C.3     1  UNL1        0.0239
      8 C         140.7959  139.7347  161.7847 C.3     1  UNL1        0.0253
      9 C         141.1907  140.5274  161.8973 C.3     1  UNL1        0.0205
     10 H         142.4636  139.6431  160.1206 H       1  UNL1        0.1233
     11 C         137.6936  138.0173  166.8641 C.ar    1  UNL1       -0.0000
     12 C         138.2311  137.0563  165.8454 C.ar    1  UNL1       -0.0003
     13 C         139.0119  137.5673  164.6709 C.ar    1  UNL1       -0.0043
     14 C         139.2553  139.0392  164.5151 C.ar    1  UNL1       -0.0224
     15 C         138.7178  140.0002  165.5338 C.ar    1  UNL1       -0.0043
     16 C         137.9370  139.4892  166.7083 C.ar    1  UNL1       -0.0003
     17 C         141.0969  138.7888  159.8213 C.ar    1  UNL1       -0.0224
     18 C         142.4385  138.2245  159.4585 C.ar    1  UNL1       -0.0043
     19 C         142.6437  137.5796  158.1199 C.ar    1  UNL1       -0.0003
     20 C         141.5074  137.4990  157.1440 C.ar    1  UNL1       -0.0000
     21 C         140.1658  138.0633  157.5069 C.ar    1  UNL1       -0.0003
     22 C         139.9606  138.7083  158.8455 C.ar    1  UNL1       -0.0043
     23 N         142.0658  142.9695  163.0523 N.3     1  UNL1       -0.2739
     24 C         143.4225  143.2105  163.6450 C.3     1  UNL1        0.0721
     25 C         143.5215  144.6645  164.0003 C.3     1  UNL1        0.0188
     26 C         142.2261  145.3221  163.6271 C.3     1  UNL1        0.0188
     27 C         141.3263  144.2746  163.0413 C.3     1  UNL1        0.0721
@<TRIPOS>BOND
     1    11    12   ar
     2    12    13   ar
     3    13    14   ar
     4    14     1    1
     5     1     2    1
     6     2     3    1
     7     3    23    1
     8    23    24    1
     9    24    25    1
    10    25    26    1
    11    26    27    1
    12     3     4    1
    13     4     5    1
    14     5     6    1
    15     6     7    1
    16     7     8    1
    17     8    17    1
    18    17    18   ar
    19    18    19   ar
    20    19    20   ar
    21    20    21   ar
    22    21    22   ar
    23     8     9    1
    24    14    15   ar
    25    15    16   ar
    26    16    11   ar
    27     7     1    1
    28    22    17   ar
    29     9     3    1
    30    27    23    1
    31     5    10    1
@<TRIPOS>MOLECULE
*****
 27 31 0 0 0
SMALL
GASTEIGER

@<TRIPOS>ATOM
      1 C         141.7974  141.7547  166.7691 C.3     1  UNL1        0.0253
      2 C         140.7667  140.6648  166.7747 C.3     1  UNL1        0.0205
      3 C         140.1899  139.9171  165.6094 C.3     1  UNL1        0.0605
      4 C         140.5013  140.0744  164.1505 C.3     1  UNL1        0.0834
      5 N         141.4665  141.0185  163.4967 N.3     1  UNL1       -0.2964
      6 C         142.3585  142.0382  164.1404 C.3     1  UNL1        0.0692
      7 C         142.5058  142.3659  165.5967 C.3     1  UNL1        0.0239
      8 C         141.6849  141.4341  165.0611 C.3     1  UNL1        0.0253
      9 C         141.0716  140.7856  165.0644 C.3     1  UNL1        0.0205
     10 H         140.8963  141.5544  162.8425 H       1  UNL1        0.1233
     11 C         142.9114  143.4093  170.8029 C.ar    1  UNL1       -0.0000
     12 C         141.5035  143.5392  170.3017 C.ar    1  UNL1       -0.0003
     13 C         141.1322  142.9877  168.9570 C.ar    1  UNL1       -0.0043
     14 C         142.1687  142.3062  168.1137 C.ar    1  UNL1       -0.0224
     15 C         143.5765  142.1762  168.6149 C.ar    1  UNL1       -0.0043
     16 C         143.9478  142.7278  169.9595 C.ar    1  UNL1       -0.0003
     17 C         142.4520  142.0123  163.0818 C.ar    1  UNL1       -0.0224
     18 C         141.7943  143.1229  162.3177 C.ar    1  UNL1       -0.0043
     19 C         142.3173  143.5171  160.9682 C.ar    1  UNL1       -0.0003
     20 C         143.4980  142.8006  160.3828 C.ar    1  UNL1       -0.0000
     21 C         144.1557  141.6900  161.1470 C.ar    1  UNL1       -0.0003
     22 C         143.6327  141.2958  162.4965 C.ar    1  UNL1       -0.0043
     23 N         139.1663  138.8740  165.9475 N.3     1  UNL1       -0.2739
     24 C         138.9970  137.5504  165.2625 C.3     1  UNL1        0.0721
     25 C         137.8584  136.8297  165.9215 C.3     1  UNL1        0.0188
     26 C         137.3241  137.7079  167.0138 C.3     1  UNL1        0.0188
     27 C         138.1324  138.9714  167.0299 C.3     1  UNL1        0.0721
@<TRIPOS>BOND
     1    11    12   ar
     2    12    13   ar
     3    13    14   ar
     4    14     1    1
     5     1     2    1
     6     2     3    1
     7     3    23    1
     8    23    24    1
     9    24    25    1
    10    25    26    1
    11    26    27    1
    12     3     4    1
    13     4     5    1
    14     5     6    1
    15     6     7    1
    16     7     8    1
    17     8    17    1
    18    17    18   ar
    19    18    19   ar
    20    19    20   ar
    21    20    21   ar
    22    21    22   ar
    23     8     9    1
    24    14    15   ar
    25    15    16   ar
    26    16    11   ar
    27     7     1    1
    28    22    17   ar
    29     9     3    1
    30    27    23    1
    31     5    10    1
@<TRIPOS>MOLECULE
*****
 27 31 0 0 0
SMALL
GASTEIGER

@<TRIPOS>ATOM
      1 C         141.5663  141.2682  163.0709 C.3     1  UNL1        0.0253
      2 C         141.7272  140.4875  161.8002 C.3     1  UNL1        0.0205
      3 C         141.1202  139.1665  161.4309 C.3     1  UNL1        0.0605
      4 C         140.2023  138.2998  162.2411 C.3     1  UNL1        0.0834
      5 N         139.6647  138.5402  163.6207 N.3     1  UNL1       -0.2964
      6 C         139.9123  139.7065  164.5308 C.3     1  UNL1        0.0692
      7 C         140.7586  140.9206  164.2861 C.3     1  UNL1        0.0239
      8 C         140.5646  139.8902  163.4321 C.3     1  UNL1        0.0253
      9 C         140.6603  139.4256  162.6759 C.3     1  UNL1        0.0205
     10 H         139.9677  137.7280  164.1582 H       1  UNL1        0.1233
     11 C         143.8025  145.1686  163.2627 C.ar    1  UNL1       -0.0000
     12 C         142.4363  145.0566  163.8718 C.ar    1  UNL1       -0.0003
     13 C         141.6909  143.7563  163.8079 C.ar    1  UNL1       -0.0043
     14 C         142.3117  142.5682  163.1348 C.ar    1  UNL1       -0.0224
     15 C         143.6779  142.6803  162.5256 C.ar    1  UNL1       -0.0043
     16 C         144.4233  143.9805  162.5896 C.ar    1  UNL1       -0.0003
     17 C         139.2665  138.9769  164.9556 C.ar    1  UNL1       -0.0224
     18 C         138.6591  139.8279  166.0311 C.ar    1  UNL1       -0.0043
     19 C         137.7741  139.2051  167.0699 C.ar    1  UNL1       -0.0003
     20 C         137.4965  137.7315  167.0331 C.ar    1  UNL1       -0.0000
     21 C         138.1040  136.8806  165.9575 C.ar    1  UNL1       -0.0003
     22 C         138.9890  137.5033  164.9188 C.ar    1  UNL1       -0.0043
     23 N         141.4784  138.6428  160.0717 N.3     1  UNL1       -0.2739
     24 C         142.7403  137.9165  159.7112 C.3     1  UNL1        0.0721
     25 C         142.6794  137.5782  158.2510 C.3     1  UNL1        0.0188
     26 C         141.3799  138.0955  157.7092 C.3     1  UNL1        0.0188
     27 C         140.6376  138.7535  158.8344 C.3     1  UNL1        0.0721
@<TRIPOS>BOND
     1    11    12   ar
     2    12    13   ar
     3    13    14   ar
     4    14     1    1
     5     1     2    1
     6     2     3    1
     7     3    23    1
     8    23    24    1
     9    24    25    1
    10    25    26    1
    11    26    27    1
    12     3     4    1
    13     4     5    1
    14     5     6    1
    15     6     7    1
    16     7     8    1
    17     8    17    1
    18    17    18   ar
    19    18    19   ar
    20    19    20   ar
    21    20    21   ar
    22    21    22   ar
    23     8     9    1
    24    14    15   ar
    25    15    16   ar
    26    16    11   ar
    27     7     1    1
    28    22    17   ar
    29     9     3    1
    30    27    23    1
    31     5    10    1
@<TRIPOS>MOLECULE
*****
 27 31 0 0 0
SMALL
GASTEIGER

@<TRIPOS>ATOM
      1 C         140.7169  142.0918  162.8387 C.3     1  UNL1        0.0253
      2 C         140.0315  142.0576  161.5049 C.3     1  UNL1        0.0205
      3 C         138.9125  141.1679  161.0510 C.3     1  UNL1        0.0605
      4 C         138.2023  140.0926  161.8188 C.3     1  UNL1        0.0834
      5 N         138.4360  139.6415  163.2302 N.3     1  UNL1       -0.2964
      6 C         139.4374  140.1542  164.2222 C.3     1  UNL1        0.0692
      7 C         140.4525  141.2447  164.0480 C.3     1  UNL1        0.0239
      8 C         139.5667  140.8151  163.1209 C.3     1  UNL1        0.0253
      9 C         139.1588  140.7947  162.3272 C.3     1  UNL1        0.0205
     10 H         138.6431  138.6460  163.1493 H       1  UNL1        0.1233
     11 C         144.0006  145.1385  163.2689 C.ar    1  UNL1       -0.0000
     12 C         142.6503  145.4017  163.8668 C.ar    1  UNL1       -0.0003
     13 C         141.5557  144.3861  163.7233 C.ar    1  UNL1       -0.0043
     14 C         141.8114  143.1073  162.9821 C.ar    1  UNL1       -0.0224
     15 C         143.1618  142.8442  162.3843 C.ar    1  UNL1       -0.0043
     16 C         144.2564  143.8598  162.5277 C.ar    1  UNL1       -0.0003
     17 C         138.8336  139.3690  164.6082 C.ar    1  UNL1       -0.0224
     18 C         138.1862  139.8550  165.8709 C.ar    1  UNL1       -0.0043
     19 C         137.6864  138.8691  166.8849 C.ar    1  UNL1       -0.0003
     20 C         137.8340  137.3973  166.6362 C.ar    1  UNL1       -0.0000
     21 C         138.4815  136.9114  165.3734 C.ar    1  UNL1       -0.0003
     22 C         138.9813  137.8973  164.3594 C.ar    1  UNL1       -0.0043
     23 N         138.4410  141.3817  159.6431 N.3     1  UNL1       -0.2739
     24 C         137.8985  140.3266  158.7253 C.3     1  UNL1        0.0721
     25 C         137.5515  140.9809  157.4208 C.3     1  UNL1        0.0188
     26 C         137.8797  142.4402  157.5324 C.3     1  UNL1        0.0188
     27 C         138.4294  142.6880  158.9059 C.3     1  UNL1        0.0721
@<TRIPOS>BOND
     1    11    12   ar
     2    12    13   ar
     3    13    14   ar
     4    14     1    1
     5     1     2    1
     6     2     3    1
     7     3    23    1
     8    23    24    1
     9    24    25    1
    10    25    26    1
    11    26    27    1
    12     3     4    1
    13     4     5    1
    14     5     6    1
    15     6     7    1
    16     7     8    1
    17     8    17    1
    18    17    18   ar
    19    18    19   ar
    20    19    20   ar
    21    20    21   ar
    22    21    22   ar
    23     8     9    1
    24    14    15   ar
    25    15    16   ar
    26    16    11   ar
    27     7     1    1
    28    22    17   ar
    29     9     3    1
    30    27    23    1
    31     5    10    1
