@<TRIPOS>MOLECULE
*****
 40 45 0 0 0
SMALL
GASTEIGER

@<TRIPOS>ATOM
      1 C         138.5742  141.8660  159.9243 C.3     1  UNL1        0.0546
      2 C         138.0884  140.5110  159.5025 C.3     1  UNL1        0.0180
      3 C         139.1851  139.8472  158.7236 C.3     1  UNL1        0.0309
      4 C         139.5627  138.5995  157.9816 C.3     1  UNL1        0.0913
      5 N         140.9596  138.7732  157.4634 N.pl3   1  UNL1       -0.3070
      6 C         141.4454  140.1282  157.8852 C.3     1  UNL1        0.0994
      7 C         140.3487  140.7920  158.6641 C.3     1  UNL1        0.0901
      8 C         139.9711  142.0397  159.4061 C.3     1  UNL1        0.0261
      9 C         141.5122  141.7368  158.6045 C.2     1  UNL1        0.2267
     10 O         141.6419  142.6956  157.4583 O.2     1  UNL1       -0.2748
     11 N         142.5462  141.7227  159.6912 N.am    1  UNL1       -0.2750
     12 C         143.7097  142.6675  159.6317 C.3     1  UNL1        0.1000
     13 C         144.7435  142.6534  160.7183 C.3     1  UNL1        0.0670
     14 C         144.6139  141.6945  161.8645 C.ar    1  UNL1        0.0583
     15 N         145.6478  141.6805  162.9512 N.ar    1  UNL1       -0.2484
     16 C         145.5182  140.7216  164.0974 C.ar    1  UNL1        0.1023
     17 C         144.3546  139.7768  164.1569 C.ar    1  UNL1        0.0902
     18 C         143.3207  139.7909  163.0703 C.ar    1  UNL1        0.0040
     19 C         143.4504  140.7498  161.9241 C.ar    1  UNL1        0.0113
     20 C         142.4165  140.7638  160.8374 C.3     1  UNL1        0.1213
     21 C         144.2250  138.8179  165.3031 C.3     1  UNL1        0.4200
     22 F         144.0953  137.8591  166.4493 F       1  UNL1       -0.1658
     23 F         142.7340  138.9790  165.2692 F       1  UNL1       -0.1658
     24 F         145.7159  138.6569  165.3370 F       1  UNL1       -0.1658
     25 C         141.7347  137.7682  156.6638 C.ar    1  UNL1        0.0479
     26 C         141.0575  136.5290  156.1579 C.ar    1  UNL1        0.0145
     27 C         141.8325  135.5240  155.3583 C.ar    1  UNL1        0.0013
     28 C         143.2847  135.7582  155.0646 C.ar    1  UNL1        0.0001
     29 C         143.9619  136.9974  155.5706 C.ar    1  UNL1        0.0013
     30 C         143.1869  138.0023  156.3701 C.ar    1  UNL1        0.0145
     31 N         137.7991  142.8710  160.7239 N.3     1  UNL1       -0.2975
     32 H         137.8730  143.7604  160.2301 H       1  UNL1        0.1232
     33 C         138.8919  144.3992  162.5184 C.3     1  UNL1        0.1591
     34 C         139.2606  144.6656  163.9478 C.3     1  UNL1        0.1729
     35 O         138.9049  143.6703  165.0121 O.3     1  UNL1       -0.3511
     36 C         138.1807  142.4084  164.6470 C.3     1  UNL1        0.1437
     37 C         137.8120  142.1420  163.2176 C.3     1  UNL1        0.0503
     38 C         138.1677  143.1374  162.1533 C.3     1  UNL1        0.0865
     39 C         140.6378  145.4267  160.8917 C.3     1  UNL1        0.1742
     40 O         139.2476  145.3946  161.4541 O.3     1  UNL1       -0.3496
@<TRIPOS>BOND
     1    39    40    1
     2    40    33    1
     3    33    34    1
     4    34    35    1
     5    35    36    1
     6    36    37    1
     7    37    38    1
     8    38    31    1
     9     1    31    1
    10     1     2    1
    11     3     2    1
    12     3     4    1
    13     4     5    1
    14     5    25    1
    15    25    26   ar
    16    26    27   ar
    17    27    28   ar
    18    28    29   ar
    19    29    30   ar
    20     5     6    1
    21     6     7    1
    22     7     9    1
    23     9    10    2
    24     9    11   am
    25    11    12    1
    26    12    13    1
    27    13    14    1
    28    14    15   ar
    29    15    16   ar
    30    16    17   ar
    31    17    21    1
    32    21    22    1
    33    21    23    1
    34    21    24    1
    35    17    18   ar
    36    18    19   ar
    37    19    20    1
    38     7     8    1
    39    38    33    1
    40     8     1    1
    41     7     3    1
    42    20    11    1
    43    30    25   ar
    44    19    14   ar
    45    31    32    1
@<TRIPOS>MOLECULE
*****
 40 45 0 0 0
SMALL
GASTEIGER

@<TRIPOS>ATOM
      1 C         138.1098  140.1079  162.9648 C.3     1  UNL1        0.0546
      2 C         138.6542  139.2828  164.0929 C.3     1  UNL1        0.0180
      3 C         139.2859  140.2135  165.0852 C.3     1  UNL1        0.0309
      4 C         140.0127  140.2788  166.3957 C.3     1  UNL1        0.0913
      5 N         140.3080  141.7196  166.6907 N.pl3   1  UNL1       -0.3070
      6 C         139.7636  142.5448  165.5626 C.3     1  UNL1        0.0994
      7 C         139.1319  141.6140  164.5703 C.3     1  UNL1        0.0901
      8 C         138.4051  141.5487  163.2598 C.3     1  UNL1        0.0261
      9 C         138.9780  143.0144  164.0554 C.2     1  UNL1        0.2267
     10 O         138.0596  143.9734  164.7532 O.2     1  UNL1       -0.2748
     11 N         139.7424  143.4559  162.8426 N.am    1  UNL1       -0.2750
     12 C         139.5885  144.8563  162.3277 C.3     1  UNL1        0.1000
     13 C         140.3529  145.2977  161.1149 C.3     1  UNL1        0.0670
     14 C         141.2713  144.3387  160.4171 C.ar    1  UNL1        0.0583
     15 N         142.0358  144.7802  159.2043 N.ar    1  UNL1       -0.2484
     16 C         142.9542  143.8212  158.5065 C.ar    1  UNL1        0.1023
     17 C         143.1081  142.4207  159.0215 C.ar    1  UNL1        0.0902
     18 C         142.3437  141.9793  160.2342 C.ar    1  UNL1        0.0040
     19 C         141.4253  142.9383  160.9320 C.ar    1  UNL1        0.0113
     20 C         140.6608  142.4969  162.1448 C.3     1  UNL1        0.1213
     21 C         144.0265  141.4618  158.3237 C.3     1  UNL1        0.4200
     22 F         144.9449  140.5028  157.6259 F       1  UNL1       -0.1658
     23 F         145.0507  142.5480  158.1788 F       1  UNL1       -0.1658
     24 F         143.0023  140.3755  158.4686 F       1  UNL1       -0.1658
     25 C         141.0222  142.2433  167.9014 C.ar    1  UNL1        0.0479
     26 C         140.3192  143.1770  168.8416 C.ar    1  UNL1        0.0145
     27 C         141.0333  143.7006  170.0522 C.ar    1  UNL1        0.0013
     28 C         142.4506  143.2905  170.3227 C.ar    1  UNL1        0.0001
     29 C         143.1537  142.3568  169.3826 C.ar    1  UNL1        0.0013
     30 C         142.4395  141.8332  168.1719 C.ar    1  UNL1        0.0145
     31 N         137.3956  139.5843  161.7541 N.3     1  UNL1       -0.2975
     32 H         137.1368  138.6192  161.9593 H       1  UNL1        0.1232
     33 C         139.2333  138.6389  160.1796 C.3     1  UNL1        0.1591
     34 C         139.9234  138.6284  158.8478 C.3     1  UNL1        0.1729
     35 O         139.4658  139.5527  157.7587 O.3     1  UNL1       -0.3511
     36 C         138.3181  140.4876  158.0013 C.3     1  UNL1        0.1437
     37 C         137.6280  140.4982  159.3331 C.3     1  UNL1        0.0503
     38 C         138.0857  139.5738  160.4223 C.3     1  UNL1        0.0865
     39 C         141.0612  137.8708  161.8585 C.3     1  UNL1        0.1742
     40 O         139.6909  137.7146  161.2687 O.3     1  UNL1       -0.3496
@<TRIPOS>BOND
     1    39    40    1
     2    40    33    1
     3    33    34    1
     4    34    35    1
     5    35    36    1
     6    36    37    1
     7    37    38    1
     8    38    31    1
     9     1    31    1
    10     1     2    1
    11     3     2    1
    12     3     4    1
    13     4     5    1
    14     5    25    1
    15    25    26   ar
    16    26    27   ar
    17    27    28   ar
    18    28    29   ar
    19    29    30   ar
    20     5     6    1
    21     6     7    1
    22     7     9    1
    23     9    10    2
    24     9    11   am
    25    11    12    1
    26    12    13    1
    27    13    14    1
    28    14    15   ar
    29    15    16   ar
    30    16    17   ar
    31    17    21    1
    32    21    22    1
    33    21    23    1
    34    21    24    1
    35    17    18   ar
    36    18    19   ar
    37    19    20    1
    38     7     8    1
    39    38    33    1
    40     8     1    1
    41     7     3    1
    42    20    11    1
    43    30    25   ar
    44    19    14   ar
    45    31    32    1
@<TRIPOS>MOLECULE
*****
 40 45 0 0 0
SMALL
GASTEIGER

@<TRIPOS>ATOM
      1 C         139.9699  141.0135  158.7574 C.3     1  UNL1        0.0546
      2 C         139.2232  140.1306  157.8019 C.3     1  UNL1        0.0180
      3 C         140.1001  138.9594  157.4711 C.3     1  UNL1        0.0309
      4 C         140.1806  137.6900  156.6762 C.3     1  UNL1        0.0913
      5 N         141.5190  137.0645  156.9358 N.pl3   1  UNL1       -0.3070
      6 C         142.2657  137.9474  157.8913 C.3     1  UNL1        0.0994
      7 C         141.3888  139.1186  158.2221 C.3     1  UNL1        0.0901
      8 C         141.3083  140.3880  159.0170 C.3     1  UNL1        0.0261
      9 C         142.6775  139.2777  158.9731 C.2     1  UNL1        0.2267
     10 O         143.9596  139.4940  158.2252 O.2     1  UNL1       -0.2748
     11 N         142.6840  139.2205  160.4720 N.am    1  UNL1       -0.2750
     12 C         143.9727  139.3796  161.2230 C.3     1  UNL1        0.1000
     13 C         143.9792  139.3224  162.7218 C.3     1  UNL1        0.0670
     14 C         142.6971  139.1061  163.4697 C.ar    1  UNL1        0.0583
     15 N         142.7037  139.0489  164.9687 N.ar    1  UNL1       -0.2484
     16 C         141.4215  138.8325  165.7166 C.ar    1  UNL1        0.1023
     17 C         140.1328  138.6734  164.9655 C.ar    1  UNL1        0.0902
     18 C         140.1263  138.7306  163.4667 C.ar    1  UNL1        0.0040
     19 C         141.4084  138.9469  162.7188 C.ar    1  UNL1        0.0113
     20 C         141.4019  139.0041  161.2199 C.3     1  UNL1        0.1213
     21 C         138.8507  138.4570  165.7134 C.3     1  UNL1        0.4200
     22 F         137.5686  138.2407  166.4613 F       1  UNL1       -0.1658
     23 F         138.8036  139.9168  166.0550 F       1  UNL1       -0.1658
     24 F         138.8978  136.9972  165.3718 F       1  UNL1       -0.1658
     25 C         142.0224  135.7814  156.3439 C.ar    1  UNL1        0.0479
     26 C         143.2382  135.1166  156.9182 C.ar    1  UNL1        0.0145
     27 C         143.7416  133.8336  156.3264 C.ar    1  UNL1        0.0013
     28 C         143.0290  133.2152  155.1603 C.ar    1  UNL1        0.0001
     29 C         141.8132  133.8799  154.5860 C.ar    1  UNL1        0.0013
     30 C         141.3098  135.1630  155.1778 C.ar    1  UNL1        0.0145
     31 N         139.4665  142.2966  159.3492 N.3     1  UNL1       -0.2975
     32 H         140.2692  142.9217  159.4230 H       1  UNL1        0.1232
     33 C         138.7545  143.5457  161.5132 C.3     1  UNL1        0.1591
     34 C         138.0849  143.5406  162.8555 C.3     1  UNL1        0.1729
     35 O         137.4577  142.2815  163.3759 O.3     1  UNL1       -0.3511
     36 C         137.5000  141.0272  162.5542 C.3     1  UNL1        0.1437
     37 C         138.1697  141.0323  161.2120 C.3     1  UNL1        0.0503
     38 C         138.7969  142.2916  160.6915 C.3     1  UNL1        0.0865
     39 C         139.7038  145.9272  161.9345 C.3     1  UNL1        0.1742
     40 O         139.3818  144.8049  160.9927 O.3     1  UNL1       -0.3496
@<TRIPOS>BOND
     1    39    40    1
     2    40    33    1
     3    33    34    1
     4    34    35    1
     5    35    36    1
     6    36    37    1
     7    37    38    1
     8    38    31    1
     9     1    31    1
    10     1     2    1
    11     3     2    1
    12     3     4    1
    13     4     5    1
    14     5    25    1
    15    25    26   ar
    16    26    27   ar
    17    27    28   ar
    18    28    29   ar
    19    29    30   ar
    20     5     6    1
    21     6     7    1
    22     7     9    1
    23     9    10    2
    24     9    11   am
    25    11    12    1
    26    12    13    1
    27    13    14    1
    28    14    15   ar
    29    15    16   ar
    30    16    17   ar
    31    17    21    1
    32    21    22    1
    33    21    23    1
    34    21    24    1
    35    17    18   ar
    36    18    19   ar
    37    19    20    1
    38     7     8    1
    39    38    33    1
    40     8     1    1
    41     7     3    1
    42    20    11    1
    43    30    25   ar
    44    19    14   ar
    45    31    32    1
@<TRIPOS>MOLECULE
*****
 40 45 0 0 0
SMALL
GASTEIGER

@<TRIPOS>ATOM
      1 C         141.3393  144.8591  162.2842 C.3     1  UNL1        0.0546
      2 C         140.0991  145.0464  163.1068 C.3     1  UNL1        0.0180
      3 C         140.2536  144.2473  164.3668 C.3     1  UNL1        0.0309
      4 C         139.5826  143.8692  165.6539 C.3     1  UNL1        0.0913
      5 N         140.5035  142.9543  166.4055 N.pl3   1  UNL1       -0.3070
      6 C         141.7437  142.7669  165.5828 C.3     1  UNL1        0.0994
      7 C         141.5893  143.5661  164.3228 C.3     1  UNL1        0.0901
      8 C         142.2603  143.9442  163.0357 C.3     1  UNL1        0.0261
      9 C         142.9249  142.8849  164.2788 C.2     1  UNL1        0.2267
     10 O         144.0121  143.3040  165.2235 O.2     1  UNL1       -0.2748
     11 N         143.1734  141.7844  163.2902 N.am    1  UNL1       -0.2750
     12 C         144.5091  141.1032  163.2462 C.3     1  UNL1        0.1000
     13 C         144.7575  140.0029  162.2576 C.3     1  UNL1        0.0670
     14 C         143.6703  139.5837  161.3129 C.ar    1  UNL1        0.0583
     15 N         143.9189  138.4833  160.3243 N.ar    1  UNL1       -0.2484
     16 C         142.8317  138.0641  159.3797 C.ar    1  UNL1        0.1023
     17 C         141.4960  138.7454  159.4237 C.ar    1  UNL1        0.0902
     18 C         141.2475  139.8457  160.4123 C.ar    1  UNL1        0.0040
     19 C         142.3347  140.2649  161.3569 C.ar    1  UNL1        0.0113
     20 C         142.0862  141.3653  162.3456 C.3     1  UNL1        0.1213
     21 C         140.4088  138.3262  158.4791 C.3     1  UNL1        0.4200
     22 F         139.3216  137.9070  157.5344 F       1  UNL1       -0.1658
     23 F         139.3872  138.5550  159.5533 F       1  UNL1       -0.1658
     24 F         141.4304  138.0974  157.4048 F       1  UNL1       -0.1658
     25 C         140.2319  142.3353  167.7446 C.ar    1  UNL1        0.0479
     26 C         140.3259  143.1681  168.9887 C.ar    1  UNL1        0.0145
     27 C         140.0543  142.5493  170.3278 C.ar    1  UNL1        0.0013
     28 C         139.6887  141.0976  170.4228 C.ar    1  UNL1        0.0001
     29 C         139.5948  140.2648  169.1788 C.ar    1  UNL1        0.0013
     30 C         139.8663  140.8837  167.8397 C.ar    1  UNL1        0.0145
     31 N         141.6109  145.4780  160.9450 N.3     1  UNL1       -0.2975
     32 H         141.0500  146.3285  160.8945 H       1  UNL1        0.1232
     33 C         142.3268  143.6872  159.2042 C.3     1  UNL1        0.1591
     34 C         142.0517  142.9118  157.9500 C.3     1  UNL1        0.1729
     35 O         140.7856  143.1519  157.1823 O.3     1  UNL1       -0.3511
     36 C         139.7946  144.1675  157.6688 C.3     1  UNL1        0.1437
     37 C         140.0697  144.9428  158.9230 C.3     1  UNL1        0.0503
     38 C         141.3358  144.7027  159.6908 C.3     1  UNL1        0.0865
     39 C         144.6388  142.5224  159.4233 C.3     1  UNL1        0.1742
     40 O         143.5928  143.4471  159.9719 O.3     1  UNL1       -0.3496
@<TRIPOS>BOND
     1    39    40    1
     2    40    33    1
     3    33    34    1
     4    34    35    1
     5    35    36    1
     6    36    37    1
     7    37    38    1
     8    38    31    1
     9     1    31    1
    10     1     2    1
    11     3     2    1
    12     3     4    1
    13     4     5    1
    14     5    25    1
    15    25    26   ar
    16    26    27   ar
    17    27    28   ar
    18    28    29   ar
    19    29    30   ar
    20     5     6    1
    21     6     7    1
    22     7     9    1
    23     9    10    2
    24     9    11   am
    25    11    12    1
    26    12    13    1
    27    13    14    1
    28    14    15   ar
    29    15    16   ar
    30    16    17   ar
    31    17    21    1
    32    21    22    1
    33    21    23    1
    34    21    24    1
    35    17    18   ar
    36    18    19   ar
    37    19    20    1
    38     7     8    1
    39    38    33    1
    40     8     1    1
    41     7     3    1
    42    20    11    1
    43    30    25   ar
    44    19    14   ar
    45    31    32    1
@<TRIPOS>MOLECULE
*****
 40 45 0 0 0
SMALL
GASTEIGER

@<TRIPOS>ATOM
      1 C         140.0943  138.4942  160.3705 C.3     1  UNL1        0.0546
      2 C         139.9982  139.1151  159.0085 C.3     1  UNL1        0.0180
      3 C         141.3734  139.5539  158.6010 C.3     1  UNL1        0.0309
      4 C         142.1641  140.2088  157.5074 C.3     1  UNL1        0.0913
      5 N         143.5988  140.2638  157.9417 N.pl3   1  UNL1       -0.3070
      6 C         143.6949  139.6429  159.3037 C.3     1  UNL1        0.0994
      7 C         142.3196  139.2041  159.7112 C.3     1  UNL1        0.0901
      8 C         141.5290  138.5492  160.8048 C.3     1  UNL1        0.0261
      9 C         143.2656  138.8543  160.8214 C.2     1  UNL1        0.2267
     10 O         144.3357  137.8269  160.5993 O.2     1  UNL1       -0.2748
     11 N         143.1417  139.5320  162.1539 N.am    1  UNL1       -0.2750
     12 C         144.0877  139.1823  163.2641 C.3     1  UNL1        0.1000
     13 C         143.9638  139.8600  164.5965 C.3     1  UNL1        0.0670
     14 C         142.8938  140.8875  164.8187 C.ar    1  UNL1        0.0583
     15 N         142.7698  141.5652  166.1512 N.ar    1  UNL1       -0.2484
     16 C         141.6998  142.5926  166.3734 C.ar    1  UNL1        0.1023
     17 C         140.7537  142.9424  165.2631 C.ar    1  UNL1        0.0902
     18 C         140.8777  142.2647  163.9307 C.ar    1  UNL1        0.0040
     19 C         141.9477  141.2372  163.7085 C.ar    1  UNL1        0.0113
     20 C         142.0717  140.5595  162.3761 C.3     1  UNL1        0.1213
     21 C         139.6837  143.9699  165.4852 C.3     1  UNL1        0.4200
     22 F         138.6137  144.9973  165.7074 F       1  UNL1       -0.1658
     23 F         139.7740  143.7439  166.9654 F       1  UNL1       -0.1658
     24 F         139.5934  144.1959  164.0051 F       1  UNL1       -0.1658
     25 C         144.7375  140.8388  157.1525 C.ar    1  UNL1        0.0479
     26 C         145.5048  142.0111  157.6882 C.ar    1  UNL1        0.0145
     27 C         146.6434  142.5861  156.8991 C.ar    1  UNL1        0.0013
     28 C         147.0147  141.9889  155.5742 C.ar    1  UNL1        0.0001
     29 C         146.2474  140.8166  155.0384 C.ar    1  UNL1        0.0013
     30 C         145.1088  140.2416  155.8276 C.ar    1  UNL1        0.0145
     31 N         138.9556  137.9191  161.1597 N.3     1  UNL1       -0.2975
     32 H         138.1080  138.0844  160.6169 H       1  UNL1        0.1232
     33 C         138.0345  139.7484  162.7583 C.3     1  UNL1        0.1591
     34 C         137.7613  140.2410  164.1485 C.3     1  UNL1        0.1729
     35 O         138.1361  139.3969  165.3304 O.3     1  UNL1       -0.3511
     36 C         138.7841  138.0602  165.1222 C.3     1  UNL1        0.1437
     37 C         139.0572  137.5676  163.7320 C.3     1  UNL1        0.0503
     38 C         138.6824  138.4117  162.5500 C.3     1  UNL1        0.0865
     39 C         138.4946  141.7838  161.2105 C.3     1  UNL1        0.1742
     40 O         137.6597  140.5925  161.5763 O.3     1  UNL1       -0.3496
@<TRIPOS>BOND
     1    39    40    1
     2    40    33    1
     3    33    34    1
     4    34    35    1
     5    35    36    1
     6    36    37    1
     7    37    38    1
     8    38    31    1
     9     1    31    1
    10     1     2    1
    11     3     2    1
    12     3     4    1
    13     4     5    1
    14     5    25    1
    15    25    26   ar
    16    26    27   ar
    17    27    28   ar
    18    28    29   ar
    19    29    30   ar
    20     5     6    1
    21     6     7    1
    22     7     9    1
    23     9    10    2
    24     9    11   am
    25    11    12    1
    26    12    13    1
    27    13    14    1
    28    14    15   ar
    29    15    16   ar
    30    16    17   ar
    31    17    21    1
    32    21    22    1
    33    21    23    1
    34    21    24    1
    35    17    18   ar
    36    18    19   ar
    37    19    20    1
    38     7     8    1
    39    38    33    1
    40     8     1    1
    41     7     3    1
    42    20    11    1
    43    30    25   ar
    44    19    14   ar
    45    31    32    1
@<TRIPOS>MOLECULE
*****
 40 45 0 0 0
SMALL
GASTEIGER

@<TRIPOS>ATOM
      1 C         140.4082  138.5127  160.0778 C.3     1  UNL1        0.0546
      2 C         141.5818  139.2290  160.6772 C.3     1  UNL1        0.0180
      3 C         142.4819  139.6615  159.5579 C.3     1  UNL1        0.0309
      4 C         143.7636  140.3715  159.2366 C.3     1  UNL1        0.0913
      5 N         143.9383  140.3613  157.7469 N.pl3   1  UNL1       -0.3070
      6 C         142.7647  139.6449  157.1474 C.3     1  UNL1        0.0994
      7 C         141.8646  139.2124  158.2667 C.3     1  UNL1        0.0901
      8 C         140.5830  138.5024  158.5880 C.3     1  UNL1        0.0261
      9 C         141.2472  138.7633  156.9755 C.2     1  UNL1        0.2267
     10 O         140.3509  139.6910  156.2101 O.2     1  UNL1       -0.2748
     11 N         141.5262  137.3864  156.4498 N.am    1  UNL1       -0.2750
     12 C         140.9088  136.9373  155.1586 C.3     1  UNL1        0.1000
     13 C         141.1878  135.5604  154.6329 C.3     1  UNL1        0.0670
     14 C         142.0841  134.6326  155.3984 C.ar    1  UNL1        0.0583
     15 N         142.3630  133.2557  154.8726 N.ar    1  UNL1       -0.2484
     16 C         143.2593  132.3280  155.6381 C.ar    1  UNL1        0.1023
     17 C         143.8766  132.7771  156.9293 C.ar    1  UNL1        0.0902
     18 C         143.5977  134.1540  157.4550 C.ar    1  UNL1        0.0040
     19 C         142.7014  135.0818  156.6896 C.ar    1  UNL1        0.0113
     20 C         142.4225  136.4586  157.2152 C.3     1  UNL1        0.1213
     21 C         144.7729  131.8494  157.6948 C.3     1  UNL1        0.4200
     22 F         145.6692  130.9216  158.4603 F       1  UNL1       -0.1658
     23 F         145.4377  133.0271  158.3437 F       1  UNL1       -0.1658
     24 F         144.1082  130.6717  157.0458 F       1  UNL1       -0.1658
     25 C         145.0854  140.9619  156.9895 C.ar    1  UNL1        0.0479
     26 C         145.8340  142.1284  157.5631 C.ar    1  UNL1        0.0145
     27 C         146.9810  142.7291  156.8058 C.ar    1  UNL1        0.0013
     28 C         147.3794  142.1633  155.4750 C.ar    1  UNL1        0.0001
     29 C         146.6308  140.9968  154.9015 C.ar    1  UNL1        0.0013
     30 C         145.4838  140.3961  155.6587 C.ar    1  UNL1        0.0145
     31 N         139.2611  137.9120  160.8351 N.3     1  UNL1       -0.2975
     32 H         138.4323  138.0232  160.2511 H       1  UNL1        0.1232
     33 C         138.1930  139.7466  162.3328 C.3     1  UNL1        0.1591
     34 C         137.8373  140.2685  163.6934 C.3     1  UNL1        0.1729
     35 O         138.1940  139.4774  164.9169 O.3     1  UNL1       -0.3511
     36 C         138.9065  138.1645  164.7798 C.3     1  UNL1        0.1437
     37 C         139.2622  137.6427  163.4192 C.3     1  UNL1        0.0503
     38 C         138.9054  138.4338  162.1957 C.3     1  UNL1        0.0865
     39 C         138.4858  141.8665  160.8595 C.3     1  UNL1        0.1742
     40 O         137.8363  140.5377  161.1093 O.3     1  UNL1       -0.3496
@<TRIPOS>BOND
     1    39    40    1
     2    40    33    1
     3    33    34    1
     4    34    35    1
     5    35    36    1
     6    36    37    1
     7    37    38    1
     8    38    31    1
     9     1    31    1
    10     1     2    1
    11     3     2    1
    12     3     4    1
    13     4     5    1
    14     5    25    1
    15    25    26   ar
    16    26    27   ar
    17    27    28   ar
    18    28    29   ar
    19    29    30   ar
    20     5     6    1
    21     6     7    1
    22     7     9    1
    23     9    10    2
    24     9    11   am
    25    11    12    1
    26    12    13    1
    27    13    14    1
    28    14    15   ar
    29    15    16   ar
    30    16    17   ar
    31    17    21    1
    32    21    22    1
    33    21    23    1
    34    21    24    1
    35    17    18   ar
    36    18    19   ar
    37    19    20    1
    38     7     8    1
    39    38    33    1
    40     8     1    1
    41     7     3    1
    42    20    11    1
    43    30    25   ar
    44    19    14   ar
    45    31    32    1
@<TRIPOS>MOLECULE
*****
 40 45 0 0 0
SMALL
GASTEIGER

@<TRIPOS>ATOM
      1 C         141.7957  143.9649  160.4754 C.3     1  UNL1        0.0546
      2 C         140.5240  144.5131  159.8990 C.3     1  UNL1        0.0180
      3 C         139.9250  143.4609  159.0136 C.3     1  UNL1        0.0309
      4 C         138.7688  143.1494  158.1101 C.3     1  UNL1        0.0913
      5 N         138.9557  141.7583  157.5809 N.pl3   1  UNL1       -0.3070
      6 C         140.2273  141.2101  158.1573 C.3     1  UNL1        0.0994
      7 C         140.8264  142.2623  159.0427 C.3     1  UNL1        0.0901
      8 C         141.9826  142.5738  159.9462 C.3     1  UNL1        0.0261
      9 C         141.7279  141.0638  159.0719 C.2     1  UNL1        0.2267
     10 O         142.7415  140.8610  157.9849 O.2     1  UNL1       -0.2748
     11 N         141.6157  140.0679  160.1881 N.am    1  UNL1       -0.2750
     12 C         142.5172  138.8694  160.2173 C.3     1  UNL1        0.1000
     13 C         142.4050  137.8736  161.3334 C.3     1  UNL1        0.0670
     14 C         141.3914  138.0764  162.4204 C.ar    1  UNL1        0.0583
     15 N         141.2793  137.0806  163.5366 N.ar    1  UNL1       -0.2484
     16 C         140.2657  137.2833  164.6235 C.ar    1  UNL1        0.1023
     17 C         139.3642  138.4819  164.5943 C.ar    1  UNL1        0.0902
     18 C         139.4763  139.4777  163.4782 C.ar    1  UNL1        0.0040
     19 C         140.4900  139.2749  162.3912 C.ar    1  UNL1        0.0113
     20 C         140.6021  140.2707  161.2751 C.3     1  UNL1        0.1213
     21 C         138.3506  138.6847  165.6813 C.3     1  UNL1        0.4200
     22 F         137.3370  138.8874  166.7682 F       1  UNL1       -0.1658
     23 F         138.3678  140.1620  165.4217 F       1  UNL1       -0.1658
     24 F         138.3334  137.2074  165.9408 F       1  UNL1       -0.1658
     25 C         138.0328  141.0414  156.6404 C.ar    1  UNL1        0.0479
     26 C         138.5842  140.0505  155.6586 C.ar    1  UNL1        0.0145
     27 C         137.6615  139.3336  154.7181 C.ar    1  UNL1        0.0013
     28 C         136.1873  139.6076  154.7595 C.ar    1  UNL1        0.0001
     29 C         135.6359  140.5985  155.7414 C.ar    1  UNL1        0.0013
     30 C         136.5587  141.3154  156.6819 C.ar    1  UNL1        0.0145
     31 N         142.7185  144.6818  161.4159 N.3     1  UNL1       -0.2975
     32 H         143.4917  145.0389  160.8546 H       1  UNL1        0.1232
     33 C         142.7159  144.0632  163.9392 C.3     1  UNL1        0.1591
     34 C         143.3243  143.3296  165.0975 C.3     1  UNL1        0.1729
     35 O         144.5439  142.4812  164.8908 O.3     1  UNL1       -0.3511
     36 C         145.1551  142.3662  163.5258 C.3     1  UNL1        0.1437
     37 C         144.5466  143.0997  162.3674 C.3     1  UNL1        0.0503
     38 C         143.3270  143.9482  162.5742 C.3     1  UNL1        0.0865
     39 C         140.1303  144.3152  163.9774 C.3     1  UNL1        0.1742
     40 O         141.4963  144.9116  164.1459 O.3     1  UNL1       -0.3496
@<TRIPOS>BOND
     1    39    40    1
     2    40    33    1
     3    33    34    1
     4    34    35    1
     5    35    36    1
     6    36    37    1
     7    37    38    1
     8    38    31    1
     9     1    31    1
    10     1     2    1
    11     3     2    1
    12     3     4    1
    13     4     5    1
    14     5    25    1
    15    25    26   ar
    16    26    27   ar
    17    27    28   ar
    18    28    29   ar
    19    29    30   ar
    20     5     6    1
    21     6     7    1
    22     7     9    1
    23     9    10    2
    24     9    11   am
    25    11    12    1
    26    12    13    1
    27    13    14    1
    28    14    15   ar
    29    15    16   ar
    30    16    17   ar
    31    17    21    1
    32    21    22    1
    33    21    23    1
    34    21    24    1
    35    17    18   ar
    36    18    19   ar
    37    19    20    1
    38     7     8    1
    39    38    33    1
    40     8     1    1
    41     7     3    1
    42    20    11    1
    43    30    25   ar
    44    19    14   ar
    45    31    32    1
@<TRIPOS>MOLECULE
*****
 40 45 0 0 0
SMALL
GASTEIGER

@<TRIPOS>ATOM
      1 C         142.2961  144.4652  162.4415 C.3     1  UNL1        0.0546
      2 C         143.5196  144.3925  163.3062 C.3     1  UNL1        0.0180
      3 C         143.1814  143.5795  164.5205 C.3     1  UNL1        0.0309
      4 C         143.7285  143.0321  165.8054 C.3     1  UNL1        0.0913
      5 N         142.6341  142.2639  166.4853 N.pl3   1  UNL1       -0.3070
      6 C         141.4106  142.3365  165.6206 C.3     1  UNL1        0.0994
      7 C         141.7488  143.1496  164.4063 C.3     1  UNL1        0.0901
      8 C         141.2017  143.6970  163.1214 C.3     1  UNL1        0.0261
      9 C         140.3163  142.7197  164.2920 C.2     1  UNL1        0.2267
     10 O         139.2941  143.2542  165.2509 O.2     1  UNL1       -0.2748
     11 N         139.9059  141.7553  163.2189 N.am    1  UNL1       -0.2750
     12 C         138.4734  141.3255  163.1046 C.3     1  UNL1        0.1000
     13 C         138.0631  140.3611  162.0315 C.3     1  UNL1        0.0670
     14 C         139.0854  139.8266  161.0727 C.ar    1  UNL1        0.0583
     15 N         138.6750  138.8621  159.9995 N.ar    1  UNL1       -0.2484
     16 C         139.6972  138.3276  159.0407 C.ar    1  UNL1        0.1023
     17 C         141.1298  138.7575  159.1550 C.ar    1  UNL1        0.0902
     18 C         141.5401  139.7219  160.2281 C.ar    1  UNL1        0.0040
     19 C         140.5179  140.2564  161.1870 C.ar    1  UNL1        0.0113
     20 C         140.9282  141.2208  162.2601 C.3     1  UNL1        0.1213
     21 C         142.1520  138.2230  158.1962 C.3     1  UNL1        0.4200
     22 F         143.1742  137.6885  157.2373 F       1  UNL1       -0.1658
     23 F         141.0689  137.5183  157.4344 F       1  UNL1       -0.1658
     24 F         143.2351  138.9277  158.9580 F       1  UNL1       -0.1658
     25 C         142.7440  141.5486  167.7993 C.ar    1  UNL1        0.0479
     26 C         142.2844  140.1258  167.9194 C.ar    1  UNL1        0.0145
     27 C         142.3943  139.4105  169.2332 C.ar    1  UNL1        0.0013
     28 C         142.9636  140.1181  170.4270 C.ar    1  UNL1        0.0001
     29 C         143.4232  141.5409  170.3069 C.ar    1  UNL1        0.0013
     30 C         143.3133  142.2562  168.9931 C.ar    1  UNL1        0.0145
     31 N         142.1862  145.1804  161.1276 N.3     1  UNL1       -0.2975
     32 H         141.5735  145.9817  161.2788 H       1  UNL1        0.1232
     33 C         142.5552  143.5159  159.1671 C.3     1  UNL1        0.1591
     34 C         142.0329  142.7930  157.9611 C.3     1  UNL1        0.1729
     35 O         140.6194  143.0116  157.5094 O.3     1  UNL1       -0.3511
     36 C         139.7280  143.9532  158.2638 C.3     1  UNL1        0.1437
     37 C         140.2503  144.6761  159.4698 C.3     1  UNL1        0.0503
     38 C         141.6640  144.4575  159.9215 C.3     1  UNL1        0.0865
     39 C         144.3191  142.0815  160.4246 C.3     1  UNL1        0.1742
     40 O         143.9687  143.2973  159.6188 O.3     1  UNL1       -0.3496
@<TRIPOS>BOND
     1    39    40    1
     2    40    33    1
     3    33    34    1
     4    34    35    1
     5    35    36    1
     6    36    37    1
     7    37    38    1
     8    38    31    1
     9     1    31    1
    10     1     2    1
    11     3     2    1
    12     3     4    1
    13     4     5    1
    14     5    25    1
    15    25    26   ar
    16    26    27   ar
    17    27    28   ar
    18    28    29   ar
    19    29    30   ar
    20     5     6    1
    21     6     7    1
    22     7     9    1
    23     9    10    2
    24     9    11   am
    25    11    12    1
    26    12    13    1
    27    13    14    1
    28    14    15   ar
    29    15    16   ar
    30    16    17   ar
    31    17    21    1
    32    21    22    1
    33    21    23    1
    34    21    24    1
    35    17    18   ar
    36    18    19   ar
    37    19    20    1
    38     7     8    1
    39    38    33    1
    40     8     1    1
    41     7     3    1
    42    20    11    1
    43    30    25   ar
    44    19    14   ar
    45    31    32    1
@<TRIPOS>MOLECULE
*****
 40 45 0 0 0
SMALL
GASTEIGER

@<TRIPOS>ATOM
      1 C         143.3295  139.1485  159.9846 C.3     1  UNL1        0.0546
      2 C         142.3653  138.0236  159.7503 C.3     1  UNL1        0.0180
      3 C         141.4215  138.4413  158.6619 C.3     1  UNL1        0.0309
      4 C         140.2423  138.0042  157.8443 C.3     1  UNL1        0.0913
      5 N         139.8943  139.1171  156.9007 N.pl3   1  UNL1       -0.3070
      6 C         140.8585  140.2420  157.1350 C.3     1  UNL1        0.0994
      7 C         141.8024  139.8244  158.2234 C.3     1  UNL1        0.0901
      8 C         142.9816  140.2614  159.0410 C.3     1  UNL1        0.0261
      9 C         142.1832  141.2074  157.7851 C.2     1  UNL1        0.2267
     10 O         143.0427  141.3992  156.5708 O.2     1  UNL1       -0.2748
     11 N         141.7047  142.3986  158.5611 N.am    1  UNL1       -0.2750
     12 C         142.0856  143.7816  158.1227 C.3     1  UNL1        0.1000
     13 C         141.6071  144.9727  158.8987 C.3     1  UNL1        0.0670
     14 C         140.7477  144.7808  160.1130 C.ar    1  UNL1        0.0583
     15 N         140.2692  145.9721  160.8890 N.ar    1  UNL1       -0.2484
     16 C         139.4097  145.7802  162.1034 C.ar    1  UNL1        0.1023
     17 C         139.0289  144.3971  162.5417 C.ar    1  UNL1        0.0902
     18 C         139.5074  143.2060  161.7657 C.ar    1  UNL1        0.0040
     19 C         140.3668  143.3978  160.5514 C.ar    1  UNL1        0.0113
     20 C         140.8453  142.2067  159.7754 C.3     1  UNL1        0.1213
     21 C         138.1694  144.2052  163.7560 C.3     1  UNL1        0.4200
     22 F         137.3100  144.0134  164.9704 F       1  UNL1       -0.1658
     23 F         139.0257  145.1749  164.5153 F       1  UNL1       -0.1658
     24 F         137.3132  143.2355  162.9968 F       1  UNL1       -0.1658
     25 C         138.7781  139.1069  155.8986 C.ar    1  UNL1        0.0479
     26 C         137.8928  140.3086  155.7497 C.ar    1  UNL1        0.0145
     27 C         136.7767  140.2984  154.7477 C.ar    1  UNL1        0.0013
     28 C         136.5458  139.0864  153.8946 C.ar    1  UNL1        0.0001
     29 C         137.4311  137.8847  154.0435 C.ar    1  UNL1        0.0013
     30 C         138.5472  137.8949  155.0455 C.ar    1  UNL1        0.0145
     31 N         144.4457  139.1588  160.9867 N.3     1  UNL1       -0.2975
     32 H         144.8277  138.2134  161.0117 H       1  UNL1        0.1232
     33 C         144.6639  140.8731  162.9267 C.3     1  UNL1        0.1591
     34 C         144.3921  141.2680  164.3480 C.3     1  UNL1        0.1729
     35 O         143.6304  140.3434  165.2507 O.3     1  UNL1       -0.3511
     36 C         143.1405  139.0239  164.7322 C.3     1  UNL1        0.1437
     37 C         143.4122  138.6290  163.3108 C.3     1  UNL1        0.0503
     38 C         144.1739  139.5537  162.4081 C.3     1  UNL1        0.0865
     39 C         144.6885  142.7744  161.1562 C.3     1  UNL1        0.1742
     40 O         145.4255  141.7977  162.0239 O.3     1  UNL1       -0.3496
@<TRIPOS>BOND
     1    39    40    1
     2    40    33    1
     3    33    34    1
     4    34    35    1
     5    35    36    1
     6    36    37    1
     7    37    38    1
     8    38    31    1
     9     1    31    1
    10     1     2    1
    11     3     2    1
    12     3     4    1
    13     4     5    1
    14     5    25    1
    15    25    26   ar
    16    26    27   ar
    17    27    28   ar
    18    28    29   ar
    19    29    30   ar
    20     5     6    1
    21     6     7    1
    22     7     9    1
    23     9    10    2
    24     9    11   am
    25    11    12    1
    26    12    13    1
    27    13    14    1
    28    14    15   ar
    29    15    16   ar
    30    16    17   ar
    31    17    21    1
    32    21    22    1
    33    21    23    1
    34    21    24    1
    35    17    18   ar
    36    18    19   ar
    37    19    20    1
    38     7     8    1
    39    38    33    1
    40     8     1    1
    41     7     3    1
    42    20    11    1
    43    30    25   ar
    44    19    14   ar
    45    31    32    1
