@<TRIPOS>MOLECULE
*****
 41 44 0 0 0
SMALL
GASTEIGER

@<TRIPOS>ATOM
      1 C         141.6959  137.9646  162.9591 C.3     1  UNL1        0.0323
      2 C         141.4084  139.3643  162.5032 C.ar    1  UNL1       -0.0060
      3 C         140.9561  140.4996  163.3730 C.ar    1  UNL1        0.0438
      4 C         140.7908  141.7116  162.5047 C.ar    1  UNL1        0.0435
      5 N         141.1409  141.3253  161.0982 N.ar    1  UNL1       -0.3137
      6 C         141.5225  139.8747  161.0972 C.ar    1  UNL1        0.0389
      7 C         141.9751  138.6510  160.3571 C.3     1  UNL1        0.0653
      8 C         142.3774  137.9822  159.0761 C.3     1  UNL1        0.0997
      9 N         142.6214  138.0474  157.5976 N.am    1  UNL1       -0.2780
     10 C         143.0533  136.6631  157.2140 C.2     1  UNL1        0.2397
     11 O         143.1506  135.5912  158.2588 O.2     1  UNL1       -0.2734
     12 C         142.6420  138.8292  156.3176 C.3     1  UNL1        0.0950
     13 C         142.4335  140.1181  155.5792 C.3     1  UNL1        0.0377
     14 C         142.7680  139.8057  154.1508 C.3     1  UNL1        0.0035
     15 C         142.0518  141.5688  155.5802 C.3     1  UNL1        0.0707
     16 C         142.1888  142.0072  154.1522 C.3     1  UNL1        0.0212
     17 N         141.5992  142.7924  156.3203 N.pl3   1  UNL1       -0.3338
     18 C         141.1970  143.4612  157.6013 C.ar    1  UNL1        0.0504
     19 C         141.2943  142.3894  158.6461 C.ar    1  UNL1        0.0319
     20 C         140.9597  142.7018  160.0745 C.ar    1  UNL1        0.0646
     21 C         140.5279  144.0861  160.4581 C.ar    1  UNL1        0.0177
     22 C         140.4306  145.1580  159.4133 C.ar    1  UNL1        0.0072
     23 C         140.7652  144.8455  157.9849 C.ar    1  UNL1        0.0663
     24 C         140.3428  143.0102  163.1071 C.3     1  UNL1        0.0446
     25 C         140.0602  143.0970  164.5776 C.3     1  UNL1        0.0128
     26 C         139.6735  143.6743  165.9070 C.3     1  UNL1        0.0008
     27 C         139.7606  144.5094  164.1710 C.3     1  UNL1        0.0008
     28 C         140.2255  141.8851  165.4458 C.3     1  UNL1        0.0695
     29 C         140.6734  140.5864  164.8436 C.2     1  UNL1        0.1739
     30 O         140.8388  139.3745  165.7119 O.2     1  UNL1       -0.2913
     31 H         141.5354  143.4959  155.6345 H       1  UNL1        0.1468
     32 C         143.3878  136.3507  155.7855 C.3     1  UNL1        0.1286
     33 C         142.3144  135.8796  154.8496 C.3     1  UNL1        0.0267
     34 N         144.7957  136.5093  155.2930 N.3     1  UNL1       -0.3150
     35 H         145.3883  136.8352  156.0565 H       1  UNL1        0.1192
     36 H         144.8155  137.1894  154.5331 H       1  UNL1        0.1192
     37 C         140.6679  145.9174  156.9400 C.2     1  UNL1        0.2439
     38 N         139.6943  147.0456  157.1114 N.am    1  UNL1       -0.3253
     39 O         141.5441  145.8610  155.7239 O.2     1  UNL1       -0.2703
     40 H         139.1192  147.0826  157.9096 H       1  UNL1        0.1453
     41 H         139.6305  147.7491  156.4256 H       1  UNL1        0.1453
@<TRIPOS>BOND
     1     1     2    1
     2     2     3   ar
     3     3     4   ar
     4     4     5   ar
     5     5     6   ar
     6     6     7    1
     7     7     8    1
     8     8     9    1
     9     9    10   am
    10    10    11    2
    11    10    32    1
    12    32    33    1
    13    32    34    1
    14     9    12    1
    15    12    13    1
    16    13    14    1
    17    13    15    1
    18    15    16    1
    19    15    17    1
    20    17    18    1
    21    18    19   ar
    22    19    20   ar
    23    20    21   ar
    24    21    22   ar
    25    22    23   ar
    26    23    37    1
    27    37    38   am
    28    37    39    2
    29     4    24    1
    30    24    25    1
    31    25    26    1
    32    25    27    1
    33    25    28    1
    34    28    29    1
    35    29    30    2
    36     6     2   ar
    37    23    18   ar
    38    29     3    1
    39    20     5    1
    40    34    35    1
    41    34    36    1
    42    17    31    1
    43    38    40    1
    44    38    41    1
@<TRIPOS>MOLECULE
*****
 41 44 0 0 0
SMALL
GASTEIGER

@<TRIPOS>ATOM
      1 C         144.3770  138.3174  161.8767 C.3     1  UNL1        0.0323
      2 C         143.8230  139.6663  161.5256 C.ar    1  UNL1       -0.0060
      3 C         143.9122  140.9032  162.3695 C.ar    1  UNL1        0.0438
      4 C         143.2268  142.0165  161.6343 C.ar    1  UNL1        0.0435
      5 N         142.7139  141.4678  160.3359 N.ar    1  UNL1       -0.3137
      6 C         143.0823  140.0154  160.2687 C.ar    1  UNL1        0.0389
      7 C         143.0719  138.7050  159.5388 C.3     1  UNL1        0.0653
      8 C         142.6854  137.8877  158.3418 C.3     1  UNL1        0.0997
      9 N         142.0264  137.7827  156.9985 N.am    1  UNL1       -0.2780
     10 C         142.2117  136.3526  156.5859 C.2     1  UNL1        0.2397
     11 O         142.9383  135.3998  157.4882 O.2     1  UNL1       -0.2734
     12 C         141.2715  138.4180  155.8686 C.3     1  UNL1        0.0950
     13 C         140.6228  139.6234  155.2551 C.3     1  UNL1        0.0377
     14 C         140.0817  139.1461  153.9402 C.3     1  UNL1        0.0035
     15 C         140.2544  141.0759  155.3224 C.3     1  UNL1        0.0707
     16 C         139.5225  141.3504  154.0421 C.3     1  UNL1        0.0212
     17 N         140.2648  142.3863  156.0522 N.pl3   1  UNL1       -0.3338
     18 C         140.6513  143.2035  157.2492 C.ar    1  UNL1        0.0504
     19 C         141.3778  142.2507  158.1516 C.ar    1  UNL1        0.0319
     20 C         141.9190  142.7281  159.4666 C.ar    1  UNL1        0.0646
     21 C         141.7337  144.1582  159.8792 C.ar    1  UNL1        0.0177
     22 C         141.0072  145.1110  158.9768 C.ar    1  UNL1        0.0072
     23 C         140.4660  144.6337  157.6618 C.ar    1  UNL1        0.0663
     24 C         143.1582  143.3861  162.2421 C.3     1  UNL1        0.0446
     25 C         143.7751  143.6425  163.5851 C.3     1  UNL1        0.0128
     26 C         144.2059  144.3736  164.8220 C.3     1  UNL1        0.0008
     27 C         143.2393  145.0097  163.2794 C.3     1  UNL1        0.0008
     28 C         144.4605  142.5291  164.3203 C.3     1  UNL1        0.0695
     29 C         144.5291  141.1595  163.7126 C.2     1  UNL1        0.1739
     30 O         145.2145  140.0461  164.4478 O.2     1  UNL1       -0.2913
     31 H         139.7880  143.0116  155.4599 H       1  UNL1        0.1468
     32 C         141.6705  135.8752  155.2708 C.3     1  UNL1        0.1286
     33 C         142.5710  135.7949  154.0739 C.3     1  UNL1        0.0267
     34 N         140.2289  135.4782  155.1528 N.3     1  UNL1       -0.3150
     35 H         139.7691  135.5946  156.0558 H       1  UNL1        0.1192
     36 H         140.1676  134.5020  154.8634 H       1  UNL1        0.1192
     37 C         139.7394  145.5865  156.7594 C.2     1  UNL1        0.2439
     38 N         139.9407  147.0651  156.9118 N.am    1  UNL1       -0.3253
     39 O         138.8116  145.0607  155.7046 O.2     1  UNL1       -0.2703
     40 H         140.5497  147.4102  157.6042 H       1  UNL1        0.1453
     41 H         139.4639  147.6904  156.3196 H       1  UNL1        0.1453
@<TRIPOS>BOND
     1     1     2    1
     2     2     3   ar
     3     3     4   ar
     4     4     5   ar
     5     5     6   ar
     6     6     7    1
     7     7     8    1
     8     8     9    1
     9     9    10   am
    10    10    11    2
    11    10    32    1
    12    32    33    1
    13    32    34    1
    14     9    12    1
    15    12    13    1
    16    13    14    1
    17    13    15    1
    18    15    16    1
    19    15    17    1
    20    17    18    1
    21    18    19   ar
    22    19    20   ar
    23    20    21   ar
    24    21    22   ar
    25    22    23   ar
    26    23    37    1
    27    37    38   am
    28    37    39    2
    29     4    24    1
    30    24    25    1
    31    25    26    1
    32    25    27    1
    33    25    28    1
    34    28    29    1
    35    29    30    2
    36     6     2   ar
    37    23    18   ar
    38    29     3    1
    39    20     5    1
    40    34    35    1
    41    34    36    1
    42    17    31    1
    43    38    40    1
    44    38    41    1
@<TRIPOS>MOLECULE
*****
 41 44 0 0 0
SMALL
GASTEIGER

@<TRIPOS>ATOM
      1 C         144.2590  143.6323  162.2433 C.3     1  UNL1        0.0323
      2 C         143.2116  142.6881  161.7322 C.ar    1  UNL1       -0.0060
      3 C         141.9679  142.2726  162.4608 C.ar    1  UNL1        0.0438
      4 C         141.2116  141.3212  161.5817 C.ar    1  UNL1        0.0435
      5 N         141.9878  141.1487  160.3098 N.ar    1  UNL1       -0.3137
      6 C         143.2238  141.9934  160.4028 C.ar    1  UNL1        0.0389
      7 C         144.5014  142.4970  159.7996 C.3     1  UNL1        0.0653
      8 C         145.4785  142.5246  158.6617 C.3     1  UNL1        0.0997
      9 N         145.8930  142.0687  157.2942 N.am    1  UNL1       -0.2780
     10 C         147.1942  142.7667  157.0301 C.2     1  UNL1        0.2397
     11 O         147.7751  143.6863  158.0629 O.2     1  UNL1       -0.2734
     12 C         145.6340  141.2515  156.0633 C.3     1  UNL1        0.0950
     13 C         144.7708  140.2920  155.2989 C.3     1  UNL1        0.0377
     14 C         145.4911  140.0702  154.0020 C.3     1  UNL1        0.0035
     15 C         143.5347  139.4472  155.2059 C.3     1  UNL1        0.0707
     16 C         143.6152  138.7882  153.8608 C.3     1  UNL1        0.0212
     17 N         142.2571  138.9436  155.8090 N.pl3   1  UNL1       -0.3338
     18 C         141.2801  138.9161  156.9469 C.ar    1  UNL1        0.0504
     19 C         141.8610  139.8358  157.9797 C.ar    1  UNL1        0.0319
     20 C         141.1407  140.0575  159.2766 C.ar    1  UNL1        0.0646
     21 C         139.8395  139.3595  159.5407 C.ar    1  UNL1        0.0177
     22 C         139.2586  138.4398  158.5079 C.ar    1  UNL1        0.0072
     23 C         139.9789  138.2181  157.2110 C.ar    1  UNL1        0.0663
     24 C         139.9138  140.7350  162.0530 C.3     1  UNL1        0.0446
     25 C         139.3724  141.1000  163.4033 C.3     1  UNL1        0.0128
     26 C         138.4579  141.1395  164.5917 C.3     1  UNL1        0.0008
     27 C         138.2985  140.1624  162.9370 C.3     1  UNL1        0.0008
     28 C         140.1287  142.0514  164.2824 C.3     1  UNL1        0.0695
     29 C         141.4264  142.6377  163.8112 C.2     1  UNL1        0.1739
     30 O         142.1828  143.5891  164.6903 O.2     1  UNL1       -0.2913
     31 H         141.8759  138.3400  155.1312 H       1  UNL1        0.1468
     32 C         147.9145  142.5449  155.7331 C.3     1  UNL1        0.1286
     33 C         147.5423  143.3475  154.5218 C.3     1  UNL1        0.0267
     34 N         149.0069  141.5206  155.6475 N.3     1  UNL1       -0.3150
     35 H         149.1257  141.0734  156.5565 H       1  UNL1        0.1192
     36 H         149.8786  141.9751  155.3757 H       1  UNL1        0.1192
     37 C         139.3980  137.2984  156.1782 C.2     1  UNL1        0.2439
     38 N         140.1337  136.0516  155.7855 N.am    1  UNL1       -0.3253
     39 O         138.0815  137.6255  155.5380 O.2     1  UNL1       -0.2703
     40 H         140.9977  135.8369  156.2056 H       1  UNL1        0.1453
     41 H         139.7525  135.4479  155.1076 H       1  UNL1        0.1453
@<TRIPOS>BOND
     1     1     2    1
     2     2     3   ar
     3     3     4   ar
     4     4     5   ar
     5     5     6   ar
     6     6     7    1
     7     7     8    1
     8     8     9    1
     9     9    10   am
    10    10    11    2
    11    10    32    1
    12    32    33    1
    13    32    34    1
    14     9    12    1
    15    12    13    1
    16    13    14    1
    17    13    15    1
    18    15    16    1
    19    15    17    1
    20    17    18    1
    21    18    19   ar
    22    19    20   ar
    23    20    21   ar
    24    21    22   ar
    25    22    23   ar
    26    23    37    1
    27    37    38   am
    28    37    39    2
    29     4    24    1
    30    24    25    1
    31    25    26    1
    32    25    27    1
    33    25    28    1
    34    28    29    1
    35    29    30    2
    36     6     2   ar
    37    23    18   ar
    38    29     3    1
    39    20     5    1
    40    34    35    1
    41    34    36    1
    42    17    31    1
    43    38    40    1
    44    38    41    1
@<TRIPOS>MOLECULE
*****
 41 44 0 0 0
SMALL
GASTEIGER

@<TRIPOS>ATOM
      1 C         144.3003  143.0508  162.6097 C.3     1  UNL1        0.0323
      2 C         143.0135  142.6201  161.9704 C.ar    1  UNL1       -0.0060
      3 C         141.7092  142.3976  162.6769 C.ar    1  UNL1        0.0438
      4 C         140.6947  141.9762  161.6555 C.ar    1  UNL1        0.0435
      5 N         141.3721  141.9383  160.3177 N.ar    1  UNL1       -0.3137
      6 C         142.8051  142.3362  160.5123 C.ar    1  UNL1        0.0389
      7 C         144.1695  142.5962  159.9459 C.3     1  UNL1        0.0653
      8 C         145.0996  142.6487  158.7702 C.3     1  UNL1        0.0997
      9 N         145.3462  142.4795  157.3004 N.am    1  UNL1       -0.2780
     10 C         146.7943  142.8200  157.1079 C.2     1  UNL1        0.2397
     11 O         147.6333  143.2211  158.2849 O.2     1  UNL1       -0.2734
     12 C         144.8432  142.1340  155.9301 C.3     1  UNL1        0.0950
     13 C         143.7254  141.7047  155.0266 C.3     1  UNL1        0.0377
     14 C         144.3344  141.6443  153.6572 C.3     1  UNL1        0.0035
     15 C         142.2922  141.3068  154.8321 C.3     1  UNL1        0.0707
     16 C         142.1595  141.0404  153.3619 C.3     1  UNL1        0.0212
     17 N         140.9279  141.0468  155.3984 N.pl3   1  UNL1       -0.3338
     18 C         139.9978  140.9944  156.5741 C.ar    1  UNL1        0.0504
     19 C         140.8368  141.3954  157.7511 C.ar    1  UNL1        0.0319
     20 C         140.2277  141.4558  159.1205 C.ar    1  UNL1        0.0646
     21 C         138.7796  141.1152  159.3129 C.ar    1  UNL1        0.0177
     22 C         137.9406  140.7142  158.1360 C.ar    1  UNL1        0.0072
     23 C         138.5497  140.6538  156.7666 C.ar    1  UNL1        0.0663
     24 C         139.2852  141.6815  162.0757 C.3     1  UNL1        0.0446
     25 C         138.8902  141.8082  163.5171 C.3     1  UNL1        0.0128
     26 C         138.0403  141.7858  164.7529 C.3     1  UNL1        0.0008
     27 C         137.5806  141.3791  162.9249 C.3     1  UNL1        0.0008
     28 C         139.9046  142.2296  164.5385 C.3     1  UNL1        0.0695
     29 C         141.3141  142.5243  164.1184 C.2     1  UNL1        0.1739
     30 O         142.3286  142.9457  165.1398 O.2     1  UNL1       -0.2913
     31 H         140.3773  140.7836  154.6259 H       1  UNL1        0.1468
     32 C         147.4034  142.7596  155.7384 C.3     1  UNL1        0.1286
     33 C         148.2642  141.5938  155.3513 C.3     1  UNL1        0.0267
     34 N         147.1516  143.8649  154.7562 N.3     1  UNL1       -0.3150
     35 H         146.5504  144.5693  155.1837 H       1  UNL1        0.1192
     36 H         146.6942  143.4854  153.9272 H       1  UNL1        0.1192
     37 C         137.7107  140.2527  155.5896 C.2     1  UNL1        0.2439
     38 N         136.2565  139.9369  155.7780 N.am    1  UNL1       -0.3253
     39 O         138.3259  140.1676  154.2242 O.2     1  UNL1       -0.2703
     40 H         135.8527  139.9928  156.6741 H       1  UNL1        0.1453
     41 H         135.7058  139.6737  155.0055 H       1  UNL1        0.1453
@<TRIPOS>BOND
     1     1     2    1
     2     2     3   ar
     3     3     4   ar
     4     4     5   ar
     5     5     6   ar
     6     6     7    1
     7     7     8    1
     8     8     9    1
     9     9    10   am
    10    10    11    2
    11    10    32    1
    12    32    33    1
    13    32    34    1
    14     9    12    1
    15    12    13    1
    16    13    14    1
    17    13    15    1
    18    15    16    1
    19    15    17    1
    20    17    18    1
    21    18    19   ar
    22    19    20   ar
    23    20    21   ar
    24    21    22   ar
    25    22    23   ar
    26    23    37    1
    27    37    38   am
    28    37    39    2
    29     4    24    1
    30    24    25    1
    31    25    26    1
    32    25    27    1
    33    25    28    1
    34    28    29    1
    35    29    30    2
    36     6     2   ar
    37    23    18   ar
    38    29     3    1
    39    20     5    1
    40    34    35    1
    41    34    36    1
    42    17    31    1
    43    38    40    1
    44    38    41    1
@<TRIPOS>MOLECULE
*****
 41 44 0 0 0
SMALL
GASTEIGER

@<TRIPOS>ATOM
      1 C         136.9651  142.9225  156.4354 C.3     1  UNL1        0.0323
      2 C         137.6575  141.6168  156.1795 C.ar    1  UNL1       -0.0060
      3 C         137.3257  140.6416  155.0890 C.ar    1  UNL1        0.0438
      4 C         138.2664  139.4790  155.2047 C.ar    1  UNL1        0.0435
      5 N         139.1796  139.7356  156.3667 N.ar    1  UNL1       -0.3137
      6 C         138.8033  141.0567  156.9691 C.ar    1  UNL1        0.0389
      7 C         139.0187  142.1211  158.0039 C.3     1  UNL1        0.0653
      8 C         139.7680  142.6435  159.1937 C.3     1  UNL1        0.0997
      9 N         140.8504  142.4840  160.2197 N.am    1  UNL1       -0.2780
     10 C         140.7671  143.7189  161.0671 C.2     1  UNL1        0.2397
     11 O         139.7356  144.7659  160.7676 O.2     1  UNL1       -0.2734
     12 C         141.9761  141.6853  160.8071 C.3     1  UNL1        0.0950
     13 C         142.8432  140.4613  160.7984 C.3     1  UNL1        0.0377
     14 C         143.7914  140.6492  161.9453 C.3     1  UNL1        0.0035
     15 C         143.2195  139.1402  160.1959 C.3     1  UNL1        0.0707
     16 C         144.3625  138.6441  161.0311 C.3     1  UNL1        0.0212
     17 N         143.0042  138.0758  159.1612 N.pl3   1  UNL1       -0.3338
     18 C         142.2549  137.5534  157.9714 C.ar    1  UNL1        0.0504
     19 C         141.2234  138.6004  157.6719 C.ar    1  UNL1        0.0319
     20 C         140.2752  138.4125  156.5249 C.ar    1  UNL1        0.0646
     21 C         140.3585  137.1777  155.6774 C.ar    1  UNL1        0.0177
     22 C         141.3900  136.1307  155.9769 C.ar    1  UNL1        0.0072
     23 C         142.3382  136.3185  157.1239 C.ar    1  UNL1        0.0663
     24 C         138.1699  138.3370  154.2370 C.3     1  UNL1        0.0446
     25 C         137.1327  138.3575  153.1537 C.3     1  UNL1        0.0128
     26 C         136.3247  137.9217  151.9673 C.3     1  UNL1        0.0008
     27 C         137.7928  137.0436  152.8574 C.3     1  UNL1        0.0008
     28 C         136.1920  139.5201  153.0380 C.3     1  UNL1        0.0695
     29 C         136.2885  140.6622  154.0056 C.2     1  UNL1        0.1739
     30 O         135.3478  141.8248  153.8899 O.2     1  UNL1       -0.2913
     31 H         143.6812  137.3886  159.3578 H       1  UNL1        0.1468
     32 C         141.7154  143.9067  162.2142 C.3     1  UNL1        0.1286
     33 C         141.4265  143.2650  163.5389 C.3     1  UNL1        0.0267
     34 N         142.9524  144.7362  162.0365 N.3     1  UNL1       -0.3150
     35 H         142.9887  145.0922  161.0813 H       1  UNL1        0.1192
     36 H         143.7758  144.1617  162.2168 H       1  UNL1        0.1192
     37 C         143.3698  135.2715  157.4235 C.2     1  UNL1        0.2439
     38 N         144.1439  134.6397  156.3048 N.am    1  UNL1       -0.3253
     39 O         143.6271  134.8563  158.8417 O.2     1  UNL1       -0.2703
     40 H         143.9750  134.9122  155.3740 H       1  UNL1        0.1453
     41 H         144.8210  133.9525  156.5014 H       1  UNL1        0.1453
@<TRIPOS>BOND
     1     1     2    1
     2     2     3   ar
     3     3     4   ar
     4     4     5   ar
     5     5     6   ar
     6     6     7    1
     7     7     8    1
     8     8     9    1
     9     9    10   am
    10    10    11    2
    11    10    32    1
    12    32    33    1
    13    32    34    1
    14     9    12    1
    15    12    13    1
    16    13    14    1
    17    13    15    1
    18    15    16    1
    19    15    17    1
    20    17    18    1
    21    18    19   ar
    22    19    20   ar
    23    20    21   ar
    24    21    22   ar
    25    22    23   ar
    26    23    37    1
    27    37    38   am
    28    37    39    2
    29     4    24    1
    30    24    25    1
    31    25    26    1
    32    25    27    1
    33    25    28    1
    34    28    29    1
    35    29    30    2
    36     6     2   ar
    37    23    18   ar
    38    29     3    1
    39    20     5    1
    40    34    35    1
    41    34    36    1
    42    17    31    1
    43    38    40    1
    44    38    41    1
@<TRIPOS>MOLECULE
*****
 41 44 0 0 0
SMALL
GASTEIGER

@<TRIPOS>ATOM
      1 C         137.8567  142.6658  161.3528 C.3     1  UNL1        0.0323
      2 C         139.2986  142.6941  160.9403 C.ar    1  UNL1       -0.0060
      3 C         140.4408  143.2135  161.7622 C.ar    1  UNL1        0.0438
      4 C         141.6996  143.0484  160.9633 C.ar    1  UNL1        0.0435
      5 N         141.3353  142.4270  159.6475 N.ar    1  UNL1       -0.3137
      6 C         139.8515  142.2080  159.6333 C.ar    1  UNL1        0.0389
      7 C         138.6160  141.7273  158.9316 C.3     1  UNL1        0.0653
      8 C         137.9599  141.1135  157.7303 C.3     1  UNL1        0.0997
      9 N         138.0590  140.5313  156.3516 N.am    1  UNL1       -0.2780
     10 C         136.6514  140.1691  155.9810 C.2     1  UNL1        0.2397
     11 O         135.5321  140.4260  156.9459 O.2     1  UNL1       -0.2734
     12 C         138.8868  140.1365  155.1646 C.3     1  UNL1        0.0950
     13 C         140.2215  140.0350  154.4875 C.3     1  UNL1        0.0377
     14 C         139.9332  139.4160  153.1520 C.3     1  UNL1        0.0035
     15 C         141.7054  140.2540  154.5018 C.3     1  UNL1        0.0707
     16 C         142.1852  139.7483  153.1736 C.3     1  UNL1        0.0212
     17 N         142.9408  140.7347  155.2034 N.pl3   1  UNL1       -0.3338
     18 C         143.5969  141.3485  156.4047 C.ar    1  UNL1        0.0504
     19 C         142.4775  141.6053  157.3696 C.ar    1  UNL1        0.0319
     20 C         142.7658  142.2244  158.7051 C.ar    1  UNL1        0.0646
     21 C         144.1735  142.5866  159.0757 C.ar    1  UNL1        0.0177
     22 C         145.2928  142.3297  158.1108 C.ar    1  UNL1        0.0072
     23 C         145.0045  141.7107  156.7753 C.ar    1  UNL1        0.0663
     24 C         143.0148  143.4852  161.5371 C.3     1  UNL1        0.0446
     25 C         143.0714  144.0872  162.9099 C.3     1  UNL1        0.0128
     26 C         143.6327  144.7065  164.1554 C.3     1  UNL1        0.0008
     27 C         144.5250  144.1372  162.5435 C.3     1  UNL1        0.0008
     28 C         141.8126  144.2523  163.7088 C.3     1  UNL1        0.0695
     29 C         140.4974  143.8154  163.1350 C.2     1  UNL1        0.1739
     30 O         139.2386  143.9805  163.9339 O.2     1  UNL1       -0.2913
     31 H         143.6754  140.5661  154.5701 H       1  UNL1        0.1468
     32 C         136.3631  139.5500  154.6454 C.3     1  UNL1        0.1286
     33 C         136.0401  140.4221  153.4685 C.3     1  UNL1        0.0267
     34 N         136.3979  138.0589  154.4868 N.3     1  UNL1       -0.3150
     35 H         136.6320  137.6272  155.3808 H       1  UNL1        0.1192
     36 H         137.1018  137.8071  153.7929 H       1  UNL1        0.1192
     37 C         146.1239  141.4537  155.8103 C.2     1  UNL1        0.2439
     38 N         147.5216  141.8768  156.1532 N.am    1  UNL1       -0.3253
     39 O         145.8456  140.7739  154.5026 O.2     1  UNL1       -0.2703
     40 H         147.7042  142.3230  157.0115 H       1  UNL1        0.1453
     41 H         148.2562  141.7082  155.5199 H       1  UNL1        0.1453
@<TRIPOS>BOND
     1     1     2    1
     2     2     3   ar
     3     3     4   ar
     4     4     5   ar
     5     5     6   ar
     6     6     7    1
     7     7     8    1
     8     8     9    1
     9     9    10   am
    10    10    11    2
    11    10    32    1
    12    32    33    1
    13    32    34    1
    14     9    12    1
    15    12    13    1
    16    13    14    1
    17    13    15    1
    18    15    16    1
    19    15    17    1
    20    17    18    1
    21    18    19   ar
    22    19    20   ar
    23    20    21   ar
    24    21    22   ar
    25    22    23   ar
    26    23    37    1
    27    37    38   am
    28    37    39    2
    29     4    24    1
    30    24    25    1
    31    25    26    1
    32    25    27    1
    33    25    28    1
    34    28    29    1
    35    29    30    2
    36     6     2   ar
    37    23    18   ar
    38    29     3    1
    39    20     5    1
    40    34    35    1
    41    34    36    1
    42    17    31    1
    43    38    40    1
    44    38    41    1
@<TRIPOS>MOLECULE
*****
 41 44 0 0 0
SMALL
GASTEIGER

@<TRIPOS>ATOM
      1 C         144.1017  138.3692  161.2589 C.3     1  UNL1        0.0323
      2 C         143.0438  139.3564  160.8639 C.ar    1  UNL1       -0.0060
      3 C         142.6959  140.6172  161.5983 C.ar    1  UNL1        0.0438
      4 C         141.5850  141.2962  160.8534 C.ar    1  UNL1        0.0435
      5 N         141.2463  140.4549  159.6586 N.ar    1  UNL1       -0.3137
      6 C         142.1477  139.2562  159.6651 C.ar    1  UNL1        0.0389
      7 C         142.6039  137.9705  159.0415 C.3     1  UNL1        0.0653
      8 C         142.4925  136.9423  157.9549 C.3     1  UNL1        0.0997
      9 N         141.8434  136.4474  156.6965 N.am    1  UNL1       -0.2780
     10 C         142.5462  135.1613  156.3771 C.2     1  UNL1        0.2397
     11 O         143.6427  134.6636  157.2715 O.2     1  UNL1       -0.2734
     12 C         140.8305  136.6181  155.6035 C.3     1  UNL1        0.0950
     13 C         139.7251  137.4089  154.9686 C.3     1  UNL1        0.0377
     14 C         139.3314  136.6205  153.7548 C.3     1  UNL1        0.0035
     15 C         138.8236  138.6078  154.9621 C.3     1  UNL1        0.0707
     16 C         137.9632  138.4399  153.7449 C.3     1  UNL1        0.0212
     17 N         138.3674  139.8934  155.5857 N.pl3   1  UNL1       -0.3338
     18 C         138.4789  140.9215  156.6723 C.ar    1  UNL1        0.0504
     19 C         139.5753  140.4238  157.5667 C.ar    1  UNL1        0.0319
     20 C         139.9690  141.2122  158.7805 C.ar    1  UNL1        0.0646
     21 C         139.2662  142.4983  159.0999 C.ar    1  UNL1        0.0177
     22 C         138.1697  142.9960  158.2056 C.ar    1  UNL1        0.0072
     23 C         137.7761  142.2076  156.9917 C.ar    1  UNL1        0.0663
     24 C         141.0255  142.5927  161.3593 C.3     1  UNL1        0.0446
     25 C         141.5768  143.2103  162.6101 C.3     1  UNL1        0.0128
     26 C         141.7651  144.1807  163.7384 C.3     1  UNL1        0.0008
     27 C         140.5313  144.2262  162.2571 C.3     1  UNL1        0.0008
     28 C         142.6877  142.5313  163.3550 C.3     1  UNL1        0.0695
     29 C         143.2473  141.2348  162.8492 C.2     1  UNL1        0.1739
     30 O         144.3582  140.5559  163.5941 O.2     1  UNL1       -0.2913
     31 H         137.6478  140.2201  154.9986 H       1  UNL1        0.1468
     32 C         142.1525  134.3729  155.1632 C.3     1  UNL1        0.1286
     33 C         141.3579  133.1097  155.3146 C.3     1  UNL1        0.0267
     34 N         142.5533  134.8478  153.7980 N.3     1  UNL1       -0.3150
     35 H         143.0839  135.7148  153.8818 H       1  UNL1        0.1192
     36 H         141.7178  135.0134  153.2368 H       1  UNL1        0.1192
     37 C         136.6795  142.7053  156.0973 C.2     1  UNL1        0.2439
     38 N         135.5186  141.8147  155.7672 N.am    1  UNL1       -0.3253
     39 O         136.7440  144.0936  155.5329 O.2     1  UNL1       -0.2703
     40 H         135.4763  140.9035  156.1376 H       1  UNL1        0.1453
     41 H         134.7989  142.1413  155.1801 H       1  UNL1        0.1453
@<TRIPOS>BOND
     1     1     2    1
     2     2     3   ar
     3     3     4   ar
     4     4     5   ar
     5     5     6   ar
     6     6     7    1
     7     7     8    1
     8     8     9    1
     9     9    10   am
    10    10    11    2
    11    10    32    1
    12    32    33    1
    13    32    34    1
    14     9    12    1
    15    12    13    1
    16    13    14    1
    17    13    15    1
    18    15    16    1
    19    15    17    1
    20    17    18    1
    21    18    19   ar
    22    19    20   ar
    23    20    21   ar
    24    21    22   ar
    25    22    23   ar
    26    23    37    1
    27    37    38   am
    28    37    39    2
    29     4    24    1
    30    24    25    1
    31    25    26    1
    32    25    27    1
    33    25    28    1
    34    28    29    1
    35    29    30    2
    36     6     2   ar
    37    23    18   ar
    38    29     3    1
    39    20     5    1
    40    34    35    1
    41    34    36    1
    42    17    31    1
    43    38    40    1
    44    38    41    1
@<TRIPOS>MOLECULE
*****
 41 44 0 0 0
SMALL
GASTEIGER

@<TRIPOS>ATOM
      1 C         139.6529  138.9430  160.7919 C.3     1  UNL1        0.0323
      2 C         139.7793  140.3902  160.4185 C.ar    1  UNL1       -0.0060
      3 C         140.0524  141.5238  161.3621 C.ar    1  UNL1        0.0438
      4 C         140.0966  142.7922  160.5626 C.ar    1  UNL1        0.0435
      5 N         139.8508  142.4425  159.1248 N.ar    1  UNL1       -0.3137
      6 C         139.6547  140.9582  159.0357 C.ar    1  UNL1        0.0389
      7 C         139.3876  139.7299  158.2171 C.3     1  UNL1        0.0653
      8 C         139.1209  139.0870  156.8883 C.3     1  UNL1        0.0997
      9 N         138.9262  139.2018  155.4055 N.am    1  UNL1       -0.2780
     10 C         138.6864  137.7976  154.9356 C.2     1  UNL1        0.2397
     11 O         138.6854  136.6668  155.9211 O.2     1  UNL1       -0.2734
     12 C         138.8556  140.0433  154.1658 C.3     1  UNL1        0.0950
     13 C         138.9281  141.3863  153.5015 C.3     1  UNL1        0.0377
     14 C         138.6893  141.1129  152.0461 C.3     1  UNL1        0.0035
     15 C         139.1242  142.8708  153.5906 C.3     1  UNL1        0.0707
     16 C         138.9869  143.3658  152.1814 C.3     1  UNL1        0.0212
     17 N         139.3914  144.0989  154.4092 N.pl3   1  UNL1       -0.3338
     18 C         139.6581  144.7418  155.7380 C.ar    1  UNL1        0.0504
     19 C         139.6571  143.6110  156.7235 C.ar    1  UNL1        0.0319
     20 C         139.8959  143.8844  158.1789 C.ar    1  UNL1        0.0646
     21 C         140.1357  145.2886  158.6488 C.ar    1  UNL1        0.0177
     22 C         140.1367  146.4194  157.6633 C.ar    1  UNL1        0.0072
     23 C         139.8979  146.1460  156.2079 C.ar    1  UNL1        0.0663
     24 C         140.3550  144.1016  161.2472 C.3     1  UNL1        0.0446
     25 C         140.5691  144.1427  162.7312 C.3     1  UNL1        0.0128
     26 C         140.8301  144.6903  164.1031 C.3     1  UNL1        0.0008
     27 C         140.7039  145.6012  162.4082 C.3     1  UNL1        0.0008
     28 C         140.5249  142.8743  163.5307 C.3     1  UNL1        0.0695
     29 C         140.2665  141.5649  162.8462 C.2     1  UNL1        0.1739
     30 O         140.2223  140.2965  163.6457 O.2     1  UNL1       -0.2913
     31 H         139.3921  144.8411  153.7624 H       1  UNL1        0.1468
     32 C         138.4475  137.5242  153.4801 C.3     1  UNL1        0.1286
     33 C         137.0484  137.5098  152.9395 C.3     1  UNL1        0.0267
     34 N         139.6078  137.2653  152.5654 N.3     1  UNL1       -0.3150
     35 H         140.4770  137.3131  153.0969 H       1  UNL1        0.1192
     36 H         139.6218  137.9685  151.8267 H       1  UNL1        0.1192
     37 C         139.8989  147.2768  155.2223 C.2     1  UNL1        0.2439
     38 N         139.4201  148.6357  155.6395 N.am    1  UNL1       -0.3253
     39 O         140.3787  147.0487  153.8196 O.2     1  UNL1       -0.2703
     40 H         139.1052  148.7854  156.5602 H       1  UNL1        0.1453
     41 H         139.4207  149.3779  154.9927 H       1  UNL1        0.1453
@<TRIPOS>BOND
     1     1     2    1
     2     2     3   ar
     3     3     4   ar
     4     4     5   ar
     5     5     6   ar
     6     6     7    1
     7     7     8    1
     8     8     9    1
     9     9    10   am
    10    10    11    2
    11    10    32    1
    12    32    33    1
    13    32    34    1
    14     9    12    1
    15    12    13    1
    16    13    14    1
    17    13    15    1
    18    15    16    1
    19    15    17    1
    20    17    18    1
    21    18    19   ar
    22    19    20   ar
    23    20    21   ar
    24    21    22   ar
    25    22    23   ar
    26    23    37    1
    27    37    38   am
    28    37    39    2
    29     4    24    1
    30    24    25    1
    31    25    26    1
    32    25    27    1
    33    25    28    1
    34    28    29    1
    35    29    30    2
    36     6     2   ar
    37    23    18   ar
    38    29     3    1
    39    20     5    1
    40    34    35    1
    41    34    36    1
    42    17    31    1
    43    38    40    1
    44    38    41    1
@<TRIPOS>MOLECULE
*****
 41 44 0 0 0
SMALL
GASTEIGER

@<TRIPOS>ATOM
      1 C         140.9364  145.0790  162.2595 C.3     1  UNL1        0.0323
      2 C         141.3732  143.7362  161.7537 C.ar    1  UNL1       -0.0060
      3 C         141.9469  142.6255  162.5828 C.ar    1  UNL1        0.0438
      4 C         142.2414  141.4712  161.6714 C.ar    1  UNL1        0.0435
      5 N         141.8497  141.8684  160.2789 N.ar    1  UNL1       -0.3137
      6 C         141.3132  143.2681  160.3298 C.ar    1  UNL1        0.0389
      7 C         140.7298  144.4618  159.6336 C.3     1  UNL1        0.0653
      8 C         140.2558  145.1295  158.3767 C.3     1  UNL1        0.0997
      9 N         140.0183  145.0923  156.8962 N.am    1  UNL1       -0.2780
     10 C         139.4386  146.4348  156.5621 C.2     1  UNL1        0.2397
     11 O         139.2272  147.4510  157.6450 O.2     1  UNL1       -0.2734
     12 C         140.0809  144.3602  155.5885 C.3     1  UNL1        0.0950
     13 C         140.4268  143.1292  154.8041 C.3     1  UNL1        0.0377
     14 C         140.0585  143.4556  153.3871 C.3     1  UNL1        0.0035
     15 C         140.9633  141.7294  154.7533 C.3     1  UNL1        0.0707
     16 C         140.8728  141.3311  153.3099 C.3     1  UNL1        0.0212
     17 N         141.5467  140.5358  155.4495 N.pl3   1  UNL1       -0.3338
     18 C         142.0206  139.8681  156.7063 C.ar    1  UNL1        0.0504
     19 C         141.8092  140.8842  157.7892 C.ar    1  UNL1        0.0319
     20 C         142.1775  140.5578  159.2062 C.ar    1  UNL1        0.0646
     21 C         142.7572  139.2153  159.5402 C.ar    1  UNL1        0.0177
     22 C         142.9686  138.1992  158.4573 C.ar    1  UNL1        0.0072
     23 C         142.6004  138.5255  157.0404 C.ar    1  UNL1        0.0663
     24 C         142.8281  140.2075  162.2271 C.3     1  UNL1        0.0446
     25 C         143.1204  140.0982  163.6943 C.3     1  UNL1        0.0128
     26 C         143.5691  139.5180  165.0028 C.3     1  UNL1        0.0008
     27 C         143.5706  138.7423  163.2373 C.3     1  UNL1        0.0008
     28 C         142.8259  141.2525  164.6057 C.3     1  UNL1        0.0695
     29 C         142.2392  142.5162  164.0500 C.2     1  UNL1        0.1739
     30 O         141.9447  143.6706  164.9614 O.2     1  UNL1       -0.2913
     31 H         141.6855  139.8688  154.7387 H       1  UNL1        0.1468
     32 C         139.0703  146.7612  155.1451 C.3     1  UNL1        0.1286
     33 C         140.0374  147.5030  154.2707 C.3     1  UNL1        0.0267
     34 N         137.7351  146.3457  154.6025 N.3     1  UNL1       -0.3150
     35 H         137.2108  145.8561  155.3276 H       1  UNL1        0.1192
     36 H         137.8706  145.7259  153.8038 H       1  UNL1        0.1192
     37 C         142.8118  137.5094  155.9574 C.2     1  UNL1        0.2439
     38 N         144.0261  136.6291  155.9816 N.am    1  UNL1       -0.3253
     39 O         141.8089  137.3735  154.8503 O.2     1  UNL1       -0.2703
     40 H         144.6843  136.7183  156.7083 H       1  UNL1        0.1453
     41 H         144.1649  135.9622  155.2709 H       1  UNL1        0.1453
@<TRIPOS>BOND
     1     1     2    1
     2     2     3   ar
     3     3     4   ar
     4     4     5   ar
     5     5     6   ar
     6     6     7    1
     7     7     8    1
     8     8     9    1
     9     9    10   am
    10    10    11    2
    11    10    32    1
    12    32    33    1
    13    32    34    1
    14     9    12    1
    15    12    13    1
    16    13    14    1
    17    13    15    1
    18    15    16    1
    19    15    17    1
    20    17    18    1
    21    18    19   ar
    22    19    20   ar
    23    20    21   ar
    24    21    22   ar
    25    22    23   ar
    26    23    37    1
    27    37    38   am
    28    37    39    2
    29     4    24    1
    30    24    25    1
    31    25    26    1
    32    25    27    1
    33    25    28    1
    34    28    29    1
    35    29    30    2
    36     6     2   ar
    37    23    18   ar
    38    29     3    1
    39    20     5    1
    40    34    35    1
    41    34    36    1
    42    17    31    1
    43    38    40    1
    44    38    41    1
