@<TRIPOS>MOLECULE
*****
 31 35 0 0 0
SMALL
GASTEIGER

@<TRIPOS>ATOM
      1 C         142.3462  138.1650  163.2276 C.3     1  UNL1        0.0730
      2 N         143.1981  139.3592  163.5409 N.3     1  UNL1       -0.2726
      3 C         144.6436  139.3305  163.9407 C.3     1  UNL1        0.0721
      4 C         145.0929  140.7453  164.1563 C.3     1  UNL1        0.0190
      5 C         143.9252  141.6483  163.8898 C.3     1  UNL1        0.0201
      6 C         144.6504  142.9303  164.1736 C.3     1  UNL1        0.0061
      7 C         143.2049  142.9590  163.7738 C.3     1  UNL1        0.0238
      8 C         142.7541  140.7916  163.5095 C.3     1  UNL1        0.0724
      9 C         141.9545  143.7322  163.4761 C.ar    1  UNL1       -0.0208
     10 C         140.9332  143.9501  164.5528 C.ar    1  UNL1        0.0072
     11 C         139.6828  144.7233  164.2551 C.ar    1  UNL1        0.0582
     12 CL        138.6614  144.9413  165.3318 Cl      1  UNL1       -0.0822
     13 C         139.4538  145.2786  162.8806 C.ar    1  UNL1        0.0228
     14 C         140.4752  145.0606  161.8038 C.ar    1  UNL1        0.0582
     15 CL        140.2460  145.6159  160.4294 Cl      1  UNL1       -0.0822
     16 C         141.7255  144.2874  162.1016 C.ar    1  UNL1        0.0072
     17 C         141.6077  137.4613  164.3273 C.3     1  UNL1        0.0294
     18 C         140.1087  137.4991  164.3680 C.3     1  UNL1        0.0666
     19 S         139.4004  138.7657  164.7475 S.3     1  UNL1       -0.0756
     20 C         139.4826  139.9573  168.4407 C.ar    1  UNL1        0.2029
     21 N         138.1663  139.2393  168.3969 N.ar    1  UNL1       -0.1250
     22 N         137.9753  138.7055  167.0082 N.ar    1  UNL1       -0.1220
     23 C         139.1736  139.0936  166.1936 C.ar    1  UNL1        0.1933
     24 N         140.1052  139.8672  167.0788 N.ar    1  UNL1       -0.2860
     25 C         141.4272  140.4487  166.6736 C.3     1  UNL1        0.1341
     26 C         142.2238  139.0973  169.9886 C.3     1  UNL1        0.0556
     27 C         141.3328  140.2493  170.3477 C.ar    1  UNL1        0.1001
     28 N         141.5452  141.2082  171.4814 N.ar    1  UNL1       -0.2085
     29 C         140.4165  142.1962  171.4706 C.ar    1  UNL1        0.2849
     30 O         139.5065  141.8478  170.3302 O.2     1  UNL1       -0.4283
     31 C         140.0728  140.6446  169.6362 C.ar    1  UNL1        0.1964
@<TRIPOS>BOND
     1    26    27    1
     2    27    28   ar
     3    28    29   ar
     4    29    30   ar
     5    30    31   ar
     6    31    20    1
     7    20    21   ar
     8    21    22   ar
     9    22    23   ar
    10    23    19    1
    11    19    18    1
    12    18    17    1
    13    17     1    1
    14     1     2    1
    15     2     3    1
    16     3     4    1
    17     5     4    1
    18     5     6    1
    19     6     7    1
    20     7     9    1
    21     9    10   ar
    22    10    11   ar
    23    11    12    1
    24    11    13   ar
    25    13    14   ar
    26    14    15    1
    27    14    16   ar
    28     5     8    1
    29    23    24   ar
    30    24    25    1
    31    31    27   ar
    32    24    20   ar
    33     8     2    1
    34     7     5    1
    35    16     9   ar
@<TRIPOS>MOLECULE
*****
 31 35 0 0 0
SMALL
GASTEIGER

@<TRIPOS>ATOM
      1 C         138.1915  139.6477  163.0139 C.3     1  UNL1        0.0730
      2 N         139.5113  139.0834  163.4492 N.3     1  UNL1       -0.2726
      3 C         140.3654  138.1321  162.6646 C.3     1  UNL1        0.0721
      4 C         141.5907  137.8321  163.4761 C.3     1  UNL1        0.0190
      5 C         141.4940  138.5980  164.7622 C.3     1  UNL1        0.0201
      6 C         142.7965  138.1168  165.3295 C.3     1  UNL1        0.0061
      7 C         141.9425  139.0681  166.1141 C.3     1  UNL1        0.0238
      8 C         140.2088  139.3713  164.7456 C.3     1  UNL1        0.0724
      9 C         141.7083  139.8888  167.3477 C.ar    1  UNL1       -0.0208
     10 C         142.8026  140.7619  167.8865 C.ar    1  UNL1        0.0072
     11 C         142.5684  141.5826  169.1201 C.ar    1  UNL1        0.0582
     12 CL        143.6627  142.4557  169.6589 Cl      1  UNL1       -0.0822
     13 C         141.2400  141.5302  169.8147 C.ar    1  UNL1        0.0228
     14 C         140.1457  140.6571  169.2758 C.ar    1  UNL1        0.0582
     15 CL        138.8173  140.6048  169.9706 Cl      1  UNL1       -0.0822
     16 C         140.3799  139.8364  168.0423 C.ar    1  UNL1        0.0072
     17 C         137.6051  140.8255  163.7343 C.3     1  UNL1        0.0294
     18 C         137.3557  142.1077  162.9968 C.3     1  UNL1        0.0666
     19 S         138.2991  143.2625  163.1601 S.3     1  UNL1       -0.0756
     20 C         141.9427  142.4731  164.2401 C.ar    1  UNL1        0.2029
     21 N         141.3751  143.0230  165.5150 N.ar    1  UNL1       -0.1250
     22 N         139.9411  143.3856  165.2656 N.ar    1  UNL1       -0.1220
     23 C         139.6224  143.0598  163.8365 C.ar    1  UNL1        0.1933
     24 N         140.8595  142.4959  163.2027 N.ar    1  UNL1       -0.2860
     25 C         140.9903  142.0356  161.7811 C.3     1  UNL1        0.1341
     26 C         144.6409  143.8329  165.4733 C.3     1  UNL1        0.0556
     27 C         144.5872  142.6110  164.6049 C.ar    1  UNL1        0.1001
     28 N         145.7642  141.7996  164.1507 N.ar    1  UNL1       -0.2085
     29 C         145.2515  140.6732  163.3032 C.ar    1  UNL1        0.2849
     30 O         143.7575  140.7884  163.2335 O.2     1  UNL1       -0.4283
     31 C         143.3470  141.9860  164.0380 C.ar    1  UNL1        0.1964
@<TRIPOS>BOND
     1    26    27    1
     2    27    28   ar
     3    28    29   ar
     4    29    30   ar
     5    30    31   ar
     6    31    20    1
     7    20    21   ar
     8    21    22   ar
     9    22    23   ar
    10    23    19    1
    11    19    18    1
    12    18    17    1
    13    17     1    1
    14     1     2    1
    15     2     3    1
    16     3     4    1
    17     5     4    1
    18     5     6    1
    19     6     7    1
    20     7     9    1
    21     9    10   ar
    22    10    11   ar
    23    11    12    1
    24    11    13   ar
    25    13    14   ar
    26    14    15    1
    27    14    16   ar
    28     5     8    1
    29    23    24   ar
    30    24    25    1
    31    31    27   ar
    32    24    20   ar
    33     8     2    1
    34     7     5    1
    35    16     9   ar
@<TRIPOS>MOLECULE
*****
 31 35 0 0 0
SMALL
GASTEIGER

@<TRIPOS>ATOM
      1 C         142.9348  138.4402  162.0731 C.3     1  UNL1        0.0730
      2 N         143.5557  139.5193  162.9098 N.3     1  UNL1       -0.2726
      3 C         144.8644  139.4280  163.6371 C.3     1  UNL1        0.0721
      4 C         145.0943  140.7315  164.3427 C.3     1  UNL1        0.0190
      5 C         143.9278  141.6284  164.0516 C.3     1  UNL1        0.0201
      6 C         144.4233  142.7954  164.8532 C.3     1  UNL1        0.0061
      7 C         143.1146  142.8867  164.1259 C.3     1  UNL1        0.0238
      8 C         142.9768  140.8792  163.1659 C.3     1  UNL1        0.0724
      9 C         141.8896  143.6658  163.7489 C.ar    1  UNL1       -0.0208
     10 C         141.7487  144.2165  162.3607 C.ar    1  UNL1        0.0072
     11 C         140.5236  144.9956  161.9837 C.ar    1  UNL1        0.0582
     12 CL        140.3827  145.5463  160.5955 Cl      1  UNL1       -0.0822
     13 C         139.4395  145.2241  162.9948 C.ar    1  UNL1        0.0228
     14 C         139.5804  144.6735  164.3830 C.ar    1  UNL1        0.0582
     15 CL        138.4961  144.9020  165.3940 Cl      1  UNL1       -0.0822
     16 C         140.8054  143.8943  164.7600 C.ar    1  UNL1        0.0072
     17 C         141.5542  137.9466  162.3897 C.3     1  UNL1        0.0294
     18 C         141.2243  137.4791  163.7764 C.3     1  UNL1        0.0666
     19 S         140.6291  138.4342  164.7681 S.3     1  UNL1       -0.0756
     20 C         142.1782  140.1714  167.8742 C.ar    1  UNL1        0.2029
     21 N         143.2464  139.1736  167.5372 N.ar    1  UNL1       -0.1250
     22 N         142.7961  138.4015  166.3326 N.ar    1  UNL1       -0.1220
     23 C         141.4496  138.9219  165.9252 C.ar    1  UNL1        0.1933
     24 N         141.0676  140.0158  166.8779 N.ar    1  UNL1       -0.2860
     25 C         139.7981  140.8139  166.8408 C.3     1  UNL1        0.1341
     26 C         140.3318  140.0636  170.5629 C.3     1  UNL1        0.0556
     27 C         141.3655  141.1028  170.2442 C.ar    1  UNL1        0.1001
     28 N         141.7320  142.2750  171.1054 N.ar    1  UNL1       -0.2085
     29 C         142.8071  143.0490  170.4019 C.ar    1  UNL1        0.2849
     30 O         143.1051  142.3551  169.1058 O.2     1  UNL1       -0.4283
     31 C         142.2141  141.1524  169.0084 C.ar    1  UNL1        0.1964
@<TRIPOS>BOND
     1    26    27    1
     2    27    28   ar
     3    28    29   ar
     4    29    30   ar
     5    30    31   ar
     6    31    20    1
     7    20    21   ar
     8    21    22   ar
     9    22    23   ar
    10    23    19    1
    11    19    18    1
    12    18    17    1
    13    17     1    1
    14     1     2    1
    15     2     3    1
    16     3     4    1
    17     5     4    1
    18     5     6    1
    19     6     7    1
    20     7     9    1
    21     9    10   ar
    22    10    11   ar
    23    11    12    1
    24    11    13   ar
    25    13    14   ar
    26    14    15    1
    27    14    16   ar
    28     5     8    1
    29    23    24   ar
    30    24    25    1
    31    31    27   ar
    32    24    20   ar
    33     8     2    1
    34     7     5    1
    35    16     9   ar
@<TRIPOS>MOLECULE
*****
 31 35 0 0 0
SMALL
GASTEIGER

@<TRIPOS>ATOM
      1 C         142.7434  144.2048  162.1146 C.3     1  UNL1        0.0730
      2 N         141.2918  144.2943  162.4817 N.3     1  UNL1       -0.2726
      3 C         140.4444  145.5309  162.4319 C.3     1  UNL1        0.0721
      4 C         139.0616  145.1637  162.8825 C.3     1  UNL1        0.0190
      5 C         139.0545  143.7000  163.2109 C.3     1  UNL1        0.0201
      6 C         137.6101  143.6360  163.6103 C.3     1  UNL1        0.0061
      7 C         138.4575  142.3993  163.6602 C.3     1  UNL1        0.0238
      8 C         140.4328  143.1627  162.9631 C.3     1  UNL1        0.0724
      9 C         138.6022  140.9344  163.9483 C.ar    1  UNL1       -0.0208
     10 C         139.2292  140.0282  162.9306 C.ar    1  UNL1        0.0072
     11 C         139.3739  138.5633  163.2188 C.ar    1  UNL1        0.0582
     12 CL        140.0009  137.6570  162.2011 Cl      1  UNL1       -0.0822
     13 C         138.8915  138.0046  164.5246 C.ar    1  UNL1        0.0228
     14 C         138.2644  138.9108  165.5422 C.ar    1  UNL1        0.0582
     15 CL        137.7821  138.3520  166.8480 Cl      1  UNL1       -0.0822
     16 C         138.1198  140.3757  165.2541 C.ar    1  UNL1        0.0072
     17 C         143.7403  143.6990  163.1148 C.3     1  UNL1        0.0294
     18 C         143.9807  142.2250  163.2547 C.3     1  UNL1        0.0666
     19 S         144.3484  141.6484  164.5897 S.3     1  UNL1       -0.0756
     20 C         141.7794  140.1512  167.0846 C.ar    1  UNL1        0.2029
     21 N         141.8103  139.0878  166.0271 N.ar    1  UNL1       -0.1250
     22 N         142.7764  139.5192  164.9638 N.ar    1  UNL1       -0.1220
     23 C         143.3426  140.8493  165.3641 C.ar    1  UNL1        0.1933
     24 N         142.7265  141.2399  166.6748 N.ar    1  UNL1       -0.2860
     25 C         143.0080  142.4983  167.4411 C.3     1  UNL1        0.1341
     26 C         142.6570  138.8658  169.9528 C.3     1  UNL1        0.0556
     27 C         141.3510  139.5389  169.6510 C.ar    1  UNL1        0.1001
     28 N         140.2190  139.7394  170.6145 N.ar    1  UNL1       -0.2085
     29 C         139.1160  140.4541  169.8916 C.ar    1  UNL1        0.2849
     30 O         139.5663  140.6954  168.4813 O.2     1  UNL1       -0.4283
     31 C         140.9476  140.1298  168.3326 C.ar    1  UNL1        0.1964
@<TRIPOS>BOND
     1    26    27    1
     2    27    28   ar
     3    28    29   ar
     4    29    30   ar
     5    30    31   ar
     6    31    20    1
     7    20    21   ar
     8    21    22   ar
     9    22    23   ar
    10    23    19    1
    11    19    18    1
    12    18    17    1
    13    17     1    1
    14     1     2    1
    15     2     3    1
    16     3     4    1
    17     5     4    1
    18     5     6    1
    19     6     7    1
    20     7     9    1
    21     9    10   ar
    22    10    11   ar
    23    11    12    1
    24    11    13   ar
    25    13    14   ar
    26    14    15    1
    27    14    16   ar
    28     5     8    1
    29    23    24   ar
    30    24    25    1
    31    31    27   ar
    32    24    20   ar
    33     8     2    1
    34     7     5    1
    35    16     9   ar
@<TRIPOS>MOLECULE
*****
 31 35 0 0 0
SMALL
GASTEIGER

@<TRIPOS>ATOM
      1 C         144.2932  143.4232  163.3712 C.3     1  UNL1        0.0730
      2 N         144.2220  142.0109  163.8713 N.3     1  UNL1       -0.2726
      3 C         144.7817  140.8021  163.1817 C.3     1  UNL1        0.0721
      4 C         144.4841  139.6035  164.0330 C.3     1  UNL1        0.0190
      5 C         143.7405  140.0715  165.2488 C.3     1  UNL1        0.0201
      6 C         143.5919  138.7157  165.8732 C.3     1  UNL1        0.0061
      7 C         143.0323  139.9245  166.5629 C.3     1  UNL1        0.0238
      8 C         143.5785  141.5593  165.1488 C.3     1  UNL1        0.0724
      9 C         142.3002  140.5376  167.7197 C.ar    1  UNL1       -0.0208
     10 C         140.9016  140.0997  168.0392 C.ar    1  UNL1        0.0072
     11 C         140.1696  140.7128  169.1960 C.ar    1  UNL1        0.0582
     12 CL        138.7709  140.2749  169.5155 Cl      1  UNL1       -0.0822
     13 C         140.8362  141.7637  170.0333 C.ar    1  UNL1        0.0228
     14 C         142.2348  142.2016  169.7138 C.ar    1  UNL1        0.0582
     15 CL        142.9013  143.2526  170.5512 Cl      1  UNL1       -0.0822
     16 C         142.9668  141.5886  168.5570 C.ar    1  UNL1        0.0072
     17 C         143.7326  144.5412  164.1993 C.3     1  UNL1        0.0294
     18 C         142.5357  145.3055  163.7159 C.3     1  UNL1        0.0666
     19 S         141.4069  144.5834  163.0419 S.3     1  UNL1       -0.0756
     20 C         139.9412  141.1800  164.1970 C.ar    1  UNL1        0.2029
     21 N         139.5383  142.0704  165.3350 N.ar    1  UNL1       -0.1250
     22 N         140.0384  143.4536  165.0408 N.ar    1  UNL1       -0.1220
     23 C         140.7503  143.4182  163.7210 C.ar    1  UNL1        0.1933
     24 N         140.6902  142.0131  163.1994 N.ar    1  UNL1       -0.2860
     25 C         141.2763  141.5264  161.9073 C.3     1  UNL1        0.1341
     26 C         137.7877  139.8159  162.1595 C.3     1  UNL1        0.0556
     27 C         138.6569  139.0870  163.1410 C.ar    1  UNL1        0.1001
     28 N         138.6888  137.6032  163.3583 N.ar    1  UNL1       -0.2085
     29 C         139.6984  137.3131  164.4291 C.ar    1  UNL1        0.2849
     30 O         140.2904  138.6177  164.8736 O.2     1  UNL1       -0.4283
     31 C         139.6467  139.7140  164.0775 C.ar    1  UNL1        0.1964
@<TRIPOS>BOND
     1    26    27    1
     2    27    28   ar
     3    28    29   ar
     4    29    30   ar
     5    30    31   ar
     6    31    20    1
     7    20    21   ar
     8    21    22   ar
     9    22    23   ar
    10    23    19    1
    11    19    18    1
    12    18    17    1
    13    17     1    1
    14     1     2    1
    15     2     3    1
    16     3     4    1
    17     5     4    1
    18     5     6    1
    19     6     7    1
    20     7     9    1
    21     9    10   ar
    22    10    11   ar
    23    11    12    1
    24    11    13   ar
    25    13    14   ar
    26    14    15    1
    27    14    16   ar
    28     5     8    1
    29    23    24   ar
    30    24    25    1
    31    31    27   ar
    32    24    20   ar
    33     8     2    1
    34     7     5    1
    35    16     9   ar
@<TRIPOS>MOLECULE
*****
 31 35 0 0 0
SMALL
GASTEIGER

@<TRIPOS>ATOM
      1 C         142.7782  144.0988  161.9652 C.3     1  UNL1        0.0730
      2 N         141.3235  144.1765  162.3225 N.3     1  UNL1       -0.2726
      3 C         140.4443  145.3836  162.1821 C.3     1  UNL1        0.0721
      4 C         139.0700  145.0137  162.6558 C.3     1  UNL1        0.0190
      5 C         139.0998  143.5779  163.0890 C.3     1  UNL1        0.0201
      6 C         137.6561  143.5050  163.4896 C.3     1  UNL1        0.0061
      7 C         138.5353  142.2978  163.6300 C.3     1  UNL1        0.0238
      8 C         140.4925  143.0605  162.8830 C.3     1  UNL1        0.0724
      9 C         138.7170  140.8618  164.0234 C.ar    1  UNL1       -0.0208
     10 C         138.1428  140.3596  165.3150 C.ar    1  UNL1        0.0072
     11 C         138.3245  138.9236  165.7084 C.ar    1  UNL1        0.0582
     12 CL        137.7502  138.4213  166.9999 Cl      1  UNL1       -0.0822
     13 C         139.0804  137.9898  164.8103 C.ar    1  UNL1        0.0228
     14 C         139.6547  138.4920  163.5188 C.ar    1  UNL1        0.0582
     15 CL        140.4106  137.5581  162.6208 Cl      1  UNL1       -0.0822
     16 C         139.4730  139.9280  163.1253 C.ar    1  UNL1        0.0072
     17 C         143.3957  142.7767  161.6178 C.3     1  UNL1        0.0294
     18 C         144.8611  142.5504  161.8447 C.3     1  UNL1        0.0666
     19 S         145.3300  141.8713  163.0973 S.3     1  UNL1       -0.0756
     20 C         143.1547  141.8623  166.3119 C.ar    1  UNL1        0.2029
     21 N         143.9096  143.1480  166.4763 N.ar    1  UNL1       -0.1250
     22 N         144.8164  143.3079  165.2921 N.ar    1  UNL1       -0.1220
     23 C         144.6219  142.1210  164.3958 C.ar    1  UNL1        0.1933
     24 N         143.5949  141.2276  165.0260 N.ar    1  UNL1       -0.2860
     25 C         143.0957  139.9276  164.4683 C.3     1  UNL1        0.1341
     26 C         140.1633  143.0576  166.8340 C.3     1  UNL1        0.0556
     27 C         140.7631  141.8580  167.5057 C.ar    1  UNL1        0.1001
     28 N         140.0932  140.9972  168.5354 N.ar    1  UNL1       -0.2085
     29 C         141.0542  139.9158  168.9318 C.ar    1  UNL1        0.2849
     30 O         142.3180  140.1083  168.1471 O.2     1  UNL1       -0.4283
     31 C         142.1380  141.3086  167.2657 C.ar    1  UNL1        0.1964
@<TRIPOS>BOND
     1    26    27    1
     2    27    28   ar
     3    28    29   ar
     4    29    30   ar
     5    30    31   ar
     6    31    20    1
     7    20    21   ar
     8    21    22   ar
     9    22    23   ar
    10    23    19    1
    11    19    18    1
    12    18    17    1
    13    17     1    1
    14     1     2    1
    15     2     3    1
    16     3     4    1
    17     5     4    1
    18     5     6    1
    19     6     7    1
    20     7     9    1
    21     9    10   ar
    22    10    11   ar
    23    11    12    1
    24    11    13   ar
    25    13    14   ar
    26    14    15    1
    27    14    16   ar
    28     5     8    1
    29    23    24   ar
    30    24    25    1
    31    31    27   ar
    32    24    20   ar
    33     8     2    1
    34     7     5    1
    35    16     9   ar
@<TRIPOS>MOLECULE
*****
 31 35 0 0 0
SMALL
GASTEIGER

@<TRIPOS>ATOM
      1 C         141.6541  145.5388  163.0698 C.3     1  UNL1        0.0730
      2 N         142.5310  144.3449  163.3059 N.3     1  UNL1       -0.2726
      3 C         143.5620  143.8071  162.3584 C.3     1  UNL1        0.0721
      4 C         144.1990  142.6091  162.9979 C.3     1  UNL1        0.0190
      5 C         143.5617  142.4065  164.3406 C.3     1  UNL1        0.0201
      6 C         144.3671  141.1980  164.7157 C.3     1  UNL1        0.0061
      7 C         143.3361  141.7358  165.6632 C.3     1  UNL1        0.0238
      8 C         142.5308  143.4793  164.5309 C.3     1  UNL1        0.0724
      9 C         142.6107  141.6591  166.9738 C.ar    1  UNL1       -0.0208
     10 C         141.3568  140.8441  167.0905 C.ar    1  UNL1        0.0072
     11 C         140.6313  140.7674  168.4011 C.ar    1  UNL1        0.0582
     12 CL        139.3775  139.9524  168.5178 Cl      1  UNL1       -0.0822
     13 C         141.1597  141.5058  169.5951 C.ar    1  UNL1        0.0228
     14 C         142.4136  142.3208  169.4785 C.ar    1  UNL1        0.0582
     15 CL        142.9419  143.0592  170.6725 Cl      1  UNL1       -0.0822
     16 C         143.1390  142.3975  168.1678 C.ar    1  UNL1        0.0072
     17 C         140.4597  145.4258  162.1696 C.3     1  UNL1        0.0294
     18 C         140.6399  145.0557  160.7271 C.3     1  UNL1        0.0666
     19 S         139.9629  143.8361  160.1756 S.3     1  UNL1       -0.0756
     20 C         138.5770  141.1252  162.5831 C.ar    1  UNL1        0.2029
     21 N         137.3645  141.9864  162.3873 N.ar    1  UNL1       -0.1250
     22 N         137.7361  143.1067  161.4617 N.ar    1  UNL1       -0.1220
     23 C         139.1783  142.9379  161.0853 C.ar    1  UNL1        0.1933
     24 N         139.6980  141.7133  161.7783 N.ar    1  UNL1       -0.2860
     25 C         141.0937  141.1719  161.6833 C.3     1  UNL1        0.1341
     26 C         138.9343  138.0671  161.5014 C.3     1  UNL1        0.0556
     27 C         138.8191  138.4868  162.9369 C.ar    1  UNL1        0.1001
     28 N         138.8479  137.5745  164.1272 N.ar    1  UNL1       -0.2085
     29 C         138.7014  138.4163  165.3601 C.ar    1  UNL1        0.2849
     30 O         138.5821  139.8489  164.9317 O.2     1  UNL1       -0.4283
     31 C         138.6548  139.8924  163.4341 C.ar    1  UNL1        0.1964
@<TRIPOS>BOND
     1    26    27    1
     2    27    28   ar
     3    28    29   ar
     4    29    30   ar
     5    30    31   ar
     6    31    20    1
     7    20    21   ar
     8    21    22   ar
     9    22    23   ar
    10    23    19    1
    11    19    18    1
    12    18    17    1
    13    17     1    1
    14     1     2    1
    15     2     3    1
    16     3     4    1
    17     5     4    1
    18     5     6    1
    19     6     7    1
    20     7     9    1
    21     9    10   ar
    22    10    11   ar
    23    11    12    1
    24    11    13   ar
    25    13    14   ar
    26    14    15    1
    27    14    16   ar
    28     5     8    1
    29    23    24   ar
    30    24    25    1
    31    31    27   ar
    32    24    20   ar
    33     8     2    1
    34     7     5    1
    35    16     9   ar
@<TRIPOS>MOLECULE
*****
 31 35 0 0 0
SMALL
GASTEIGER

@<TRIPOS>ATOM
      1 C         144.0521  144.4206  164.3155 C.3     1  UNL1        0.0730
      2 N         144.2576  142.9351  164.3456 N.3     1  UNL1       -0.2726
      3 C         145.3367  142.1796  163.6283 C.3     1  UNL1        0.0721
      4 C         145.1661  140.7218  163.9378 C.3     1  UNL1        0.0190
      5 C         143.9814  140.5764  164.8463 C.3     1  UNL1        0.0201
      6 C         144.0619  139.0838  164.9713 C.3     1  UNL1        0.0061
      7 C         142.9827  139.8393  165.6886 C.3     1  UNL1        0.0238
      8 C         143.4199  141.9443  165.0984 C.3     1  UNL1        0.0724
      9 C         141.7831  139.8499  166.5890 C.ar    1  UNL1       -0.0208
     10 C         140.4273  139.5243  166.0359 C.ar    1  UNL1        0.0072
     11 C         139.2277  139.5349  166.9363 C.ar    1  UNL1        0.0582
     12 CL        137.8719  139.2093  166.3833 Cl      1  UNL1       -0.0822
     13 C         139.3839  139.8713  168.3898 C.ar    1  UNL1        0.0228
     14 C         140.7396  140.1969  168.9428 C.ar    1  UNL1        0.0582
     15 CL        140.8957  140.5333  170.3963 Cl      1  UNL1       -0.0822
     16 C         141.9393  140.1863  168.0424 C.ar    1  UNL1        0.0072
     17 C         143.1299  145.0298  163.3014 C.3     1  UNL1        0.0294
     18 C         141.6728  145.1958  163.6165 C.3     1  UNL1        0.0666
     19 S         140.6813  145.3780  162.5059 S.3     1  UNL1       -0.0756
     20 C         139.1753  142.0436  161.2099 C.ar    1  UNL1        0.2029
     21 N         137.9314  142.8324  161.4940 N.ar    1  UNL1       -0.1250
     22 N         138.3442  144.1775  162.0141 N.ar    1  UNL1       -0.1220
     23 C         139.8431  144.2200  162.0514 C.ar    1  UNL1        0.1933
     24 N         140.3568  142.9012  161.5544 N.ar    1  UNL1       -0.2860
     25 C         141.7988  142.5089  161.4247 C.3     1  UNL1        0.1341
     26 C         138.1892  139.3545  162.7741 C.3     1  UNL1        0.0556
     27 C         138.7751  139.4071  161.3942 C.ar    1  UNL1        0.1001
     28 N         139.0105  138.2329  160.4910 N.ar    1  UNL1       -0.2085
     29 C         139.6092  138.7432  159.2138 C.ar    1  UNL1        0.2849
     30 O         139.7438  140.2328  159.3277 O.2     1  UNL1       -0.4283
     31 C         139.2283  140.6431  160.6752 C.ar    1  UNL1        0.1964
@<TRIPOS>BOND
     1    26    27    1
     2    27    28   ar
     3    28    29   ar
     4    29    30   ar
     5    30    31   ar
     6    31    20    1
     7    20    21   ar
     8    21    22   ar
     9    22    23   ar
    10    23    19    1
    11    19    18    1
    12    18    17    1
    13    17     1    1
    14     1     2    1
    15     2     3    1
    16     3     4    1
    17     5     4    1
    18     5     6    1
    19     6     7    1
    20     7     9    1
    21     9    10   ar
    22    10    11   ar
    23    11    12    1
    24    11    13   ar
    25    13    14   ar
    26    14    15    1
    27    14    16   ar
    28     5     8    1
    29    23    24   ar
    30    24    25    1
    31    31    27   ar
    32    24    20   ar
    33     8     2    1
    34     7     5    1
    35    16     9   ar
@<TRIPOS>MOLECULE
*****
 31 35 0 0 0
SMALL
GASTEIGER

@<TRIPOS>ATOM
      1 C         144.3465  143.4109  163.4264 C.3     1  UNL1        0.0730
      2 N         142.9606  143.9424  163.6424 N.3     1  UNL1       -0.2726
      3 C         142.3797  145.1728  163.0109 C.3     1  UNL1        0.0721
      4 C         140.9723  145.3276  163.5061 C.3     1  UNL1        0.0190
      5 C         140.6833  144.1930  164.4437 C.3     1  UNL1        0.0201
      6 C         139.2748  144.6029  164.7566 C.3     1  UNL1        0.0061
      7 C         139.8556  143.3726  165.3881 C.3     1  UNL1        0.0238
      8 C         141.9122  143.3368  164.5280 C.3     1  UNL1        0.0724
      9 C         139.7131  142.1886  166.2980 C.ar    1  UNL1       -0.0208
     10 C         138.9370  140.9863  165.8484 C.ar    1  UNL1        0.0072
     11 C         138.7945  139.8024  166.7582 C.ar    1  UNL1        0.0582
     12 CL        138.0183  138.6001  166.3086 Cl      1  UNL1       -0.0822
     13 C         139.4281  139.8207  168.1177 C.ar    1  UNL1        0.0228
     14 C         140.2043  141.0230  168.5673 C.ar    1  UNL1        0.0582
     15 CL        140.8379  141.0412  169.9268 Cl      1  UNL1       -0.0822
     16 C         140.3468  142.2069  167.6574 C.ar    1  UNL1        0.0072
     17 C         144.9093  142.3817  164.3613 C.3     1  UNL1        0.0294
     18 C         145.7260  141.2450  163.8219 C.3     1  UNL1        0.0666
     19 S         145.2852  139.8297  164.0513 S.3     1  UNL1       -0.0756
     20 C         141.4856  139.0921  163.7608 C.ar    1  UNL1        0.2029
     21 N         141.6901  138.9806  165.2427 N.ar    1  UNL1       -0.1250
     22 N         143.1384  139.2433  165.5318 N.ar    1  UNL1       -0.1220
     23 C         143.8289  139.5172  164.2287 C.ar    1  UNL1        0.1933
     24 N         142.8075  139.4238  163.1342 N.ar    1  UNL1       -0.2860
     25 C         143.0631  139.6265  161.6701 C.3     1  UNL1        0.1341
     26 C         139.8191  141.4120  162.1827 C.3     1  UNL1        0.0556
     27 C         139.4212  139.9712  162.3080 C.ar    1  UNL1        0.1001
     28 N         138.1875  139.3437  161.7300 N.ar    1  UNL1       -0.2085
     29 C         138.1909  137.8896  162.0981 C.ar    1  UNL1        0.2849
     30 O         139.4269  137.6184  162.9037 O.2     1  UNL1       -0.4283
     31 C         140.1872  138.9049  163.0334 C.ar    1  UNL1        0.1964
@<TRIPOS>BOND
     1    26    27    1
     2    27    28   ar
     3    28    29   ar
     4    29    30   ar
     5    30    31   ar
     6    31    20    1
     7    20    21   ar
     8    21    22   ar
     9    22    23   ar
    10    23    19    1
    11    19    18    1
    12    18    17    1
    13    17     1    1
    14     1     2    1
    15     2     3    1
    16     3     4    1
    17     5     4    1
    18     5     6    1
    19     6     7    1
    20     7     9    1
    21     9    10   ar
    22    10    11   ar
    23    11    12    1
    24    11    13   ar
    25    13    14   ar
    26    14    15    1
    27    14    16   ar
    28     5     8    1
    29    23    24   ar
    30    24    25    1
    31    31    27   ar
    32    24    20   ar
    33     8     2    1
    34     7     5    1
    35    16     9   ar
