@<TRIPOS>MOLECULE
*****
 33 36 0 0 0
SMALL
GASTEIGER

@<TRIPOS>ATOM
      1 O         138.1846  139.1286  168.1220 O.2     1  UNL1       -0.2699
      2 C         139.5085  139.6895  167.6945 C.2     1  UNL1        0.2496
      3 N         140.0055  139.4582  166.2983 N.am    1  UNL1       -0.2660
      4 C         141.3294  140.0191  165.8709 C.3     1  UNL1        0.1160
      5 C         141.8263  139.7877  164.4746 C.3     1  UNL1        0.1197
      6 N         140.9994  138.9955  163.5058 N.am    1  UNL1       -0.2555
      7 C         139.6755  138.4346  163.9333 C.2     1  UNL1        0.2497
      8 O         138.8486  137.6424  162.9645 O.2     1  UNL1       -0.2727
      9 C         139.1785  138.6659  165.3295 C.3     1  UNL1        0.1799
     10 C         140.3354  140.4818  168.6634 C.ar    1  UNL1        0.0581
     11 C         140.1306  141.9624  168.7887 C.ar    1  UNL1        0.0343
     12 C         140.9575  142.7546  169.7575 C.ar    1  UNL1        0.1425
     13 F         140.7526  144.2353  169.8829 F       1  UNL1       -0.2041
     14 C         141.9892  142.0661  170.6010 C.ar    1  UNL1        0.0592
     15 C         142.1941  140.5855  170.4757 C.ar    1  UNL1        0.1425
     16 F         143.2258  139.8970  171.3192 F       1  UNL1       -0.2041
     17 C         141.3672  139.7933  169.5069 C.ar    1  UNL1        0.0343
     18 C         141.4964  138.7642  162.1096 C.ar    1  UNL1        0.0541
     19 C         140.8267  139.4447  160.9527 C.ar    1  UNL1        0.0180
     20 C         141.3237  139.2133  159.5564 C.ar    1  UNL1        0.0382
     21 C         142.4904  138.3015  159.3171 C.ar    1  UNL1        0.1386
     22 C         143.1601  137.6210  160.4740 C.ar    1  UNL1        0.0382
     23 C         142.6631  137.8523  161.8702 C.ar    1  UNL1        0.0180
     24 O         142.9874  138.0701  157.9209 O.3     1  UNL1       -0.4754
     25 C         142.4385  136.9355  157.1078 C.3     1  UNL1        0.2068
     26 C         143.2768  135.7166  156.8592 C.3     1  UNL1        0.0646
     27 C         142.6215  134.4169  156.4964 C.3     1  UNL1        0.0759
     28 N         143.2720  133.1185  156.8718 N.3     1  UNL1       -0.2726
     29 C         144.5478  133.1193  157.6607 C.3     1  UNL1        0.0721
     30 C         145.1983  131.8208  158.0360 C.3     1  UNL1        0.0174
     31 C         144.5731  130.5216  157.6225 C.3     1  UNL1        0.0029
     32 C         143.2973  130.5208  156.8336 C.3     1  UNL1        0.0174
     33 C         142.6468  131.8192  156.4582 C.3     1  UNL1        0.0721
@<TRIPOS>BOND
     1     1     2    2
     2     2    10    1
     3    10    11   ar
     4    11    12   ar
     5    12    13    1
     6    12    14   ar
     7    14    15   ar
     8    15    16    1
     9    15    17   ar
    10     2     3   am
    11     3     4    1
    12     4     5    1
    13     5     6    1
    14     6    18    1
    15    18    19   ar
    16    19    20   ar
    17    20    21   ar
    18    21    24    1
    19    24    25    1
    20    25    26    1
    21    26    27    1
    22    27    28    1
    23    28    29    1
    24    29    30    1
    25    30    31    1
    26    31    32    1
    27    32    33    1
    28    21    22   ar
    29    22    23   ar
    30     6     7   am
    31     7     8    2
    32     7     9    1
    33    17    10   ar
    34     9     3    1
    35    23    18   ar
    36    33    28    1
@<TRIPOS>MOLECULE
*****
 33 36 0 0 0
SMALL
GASTEIGER

@<TRIPOS>ATOM
      1 O         138.2011  139.1242  168.1092 O.2     1  UNL1       -0.2699
      2 C         139.5225  139.7093  167.7072 C.2     1  UNL1        0.2496
      3 N         140.0439  139.4990  166.3166 N.am    1  UNL1       -0.2660
      4 C         141.3653  140.0840  165.9145 C.3     1  UNL1        0.1160
      5 C         141.8866  139.8736  164.5238 C.3     1  UNL1        0.1197
      6 N         141.0866  139.0783  163.5352 N.am    1  UNL1       -0.2555
      7 C         139.7652  138.4933  163.9373 C.2     1  UNL1        0.2497
      8 O         138.9651  137.6980  162.9487 O.2     1  UNL1       -0.2727
      9 C         139.2438  138.7036  165.3279 C.3     1  UNL1        0.1799
     10 C         140.3226  140.5046  168.6959 C.ar    1  UNL1        0.0581
     11 C         141.3378  139.8205  169.5626 C.ar    1  UNL1        0.0343
     12 C         142.1378  140.6159  170.5512 C.ar    1  UNL1        0.1425
     13 F         143.1531  139.9318  171.4179 F       1  UNL1       -0.2041
     14 C         141.9226  142.0953  170.6731 C.ar    1  UNL1        0.0592
     15 C         140.9073  142.7794  169.8064 C.ar    1  UNL1        0.1425
     16 F         140.6921  144.2589  169.9282 F       1  UNL1       -0.2041
     17 C         140.1073  141.9841  168.8178 C.ar    1  UNL1        0.0343
     18 C         141.6079  138.8680  162.1446 C.ar    1  UNL1        0.0541
     19 C         142.7258  137.8978  161.9014 C.ar    1  UNL1        0.0180
     20 C         143.2471  137.6876  160.5107 C.ar    1  UNL1        0.0382
     21 C         142.6506  138.4474  159.3632 C.ar    1  UNL1        0.1386
     22 C         141.5328  139.4176  159.6064 C.ar    1  UNL1        0.0382
     23 C         141.0114  139.6279  160.9970 C.ar    1  UNL1        0.0180
     24 O         143.1720  138.2371  157.9726 O.3     1  UNL1       -0.4754
     25 C         142.4926  137.2631  157.0562 C.3     1  UNL1        0.2068
     26 C         143.2632  136.1117  156.4811 C.3     1  UNL1        0.0646
     27 C         142.5948  134.7825  156.2905 C.3     1  UNL1        0.0759
     28 N         143.4050  133.5212  156.3425 N.3     1  UNL1       -0.2726
     29 C         144.3089  133.2580  157.5102 C.3     1  UNL1        0.0721
     30 C         145.1192  131.9967  157.5621 C.3     1  UNL1        0.0174
     31 C         145.0255  130.9987  156.4463 C.3     1  UNL1        0.0029
     32 C         144.1215  131.2618  155.2786 C.3     1  UNL1        0.0174
     33 C         143.3113  132.5231  155.2266 C.3     1  UNL1        0.0721
@<TRIPOS>BOND
     1     1     2    2
     2     2    10    1
     3    10    11   ar
     4    11    12   ar
     5    12    13    1
     6    12    14   ar
     7    14    15   ar
     8    15    16    1
     9    15    17   ar
    10     2     3   am
    11     3     4    1
    12     4     5    1
    13     5     6    1
    14     6    18    1
    15    18    19   ar
    16    19    20   ar
    17    20    21   ar
    18    21    24    1
    19    24    25    1
    20    25    26    1
    21    26    27    1
    22    27    28    1
    23    28    29    1
    24    29    30    1
    25    30    31    1
    26    31    32    1
    27    32    33    1
    28    21    22   ar
    29    22    23   ar
    30     6     7   am
    31     7     8    2
    32     7     9    1
    33    17    10   ar
    34     9     3    1
    35    23    18   ar
    36    33    28    1
@<TRIPOS>MOLECULE
*****
 33 36 0 0 0
SMALL
GASTEIGER

@<TRIPOS>ATOM
      1 O         143.2835  138.7627  167.8987 O.2     1  UNL1       -0.2699
      2 C         142.1627  139.6149  167.3816 C.2     1  UNL1        0.2496
      3 N         141.8364  139.6177  165.9176 N.am    1  UNL1       -0.2660
      4 C         140.7156  140.4700  165.4005 C.3     1  UNL1        0.1160
      5 C         140.3894  140.4727  163.9364 C.3     1  UNL1        0.1197
      6 N         141.1840  139.6231  162.9894 N.am    1  UNL1       -0.2555
      7 C         142.3048  138.7709  163.5064 C.2     1  UNL1        0.2497
      8 O         143.0994  137.9213  162.5594 O.2     1  UNL1       -0.2727
      9 C         142.6311  138.7681  164.9705 C.3     1  UNL1        0.1799
     10 C         141.3681  140.4645  168.3287 C.ar    1  UNL1        0.0581
     11 C         141.8884  141.8072  168.7487 C.ar    1  UNL1        0.0343
     12 C         141.0938  142.6567  169.6958 C.ar    1  UNL1        0.1425
     13 F         141.6140  143.9994  170.1158 F       1  UNL1       -0.2041
     14 C         139.7789  142.1635  170.2228 C.ar    1  UNL1        0.0592
     15 C         139.2586  140.8208  169.8028 C.ar    1  UNL1        0.1425
     16 F         137.9437  140.3276  170.3299 F       1  UNL1       -0.2041
     17 C         140.0532  139.9713  168.8558 C.ar    1  UNL1        0.0343
     18 C         140.8577  139.6259  161.5253 C.ar    1  UNL1        0.0541
     19 C         139.8037  138.7026  160.9901 C.ar    1  UNL1        0.0180
     20 C         139.4775  138.7053  159.5259 C.ar    1  UNL1        0.0382
     21 C         140.2053  139.6314  158.5971 C.ar    1  UNL1        0.1386
     22 C         141.2593  140.5547  159.1324 C.ar    1  UNL1        0.0382
     23 C         141.5855  140.5520  160.5965 C.ar    1  UNL1        0.0180
     24 O         139.8790  139.6342  157.1331 O.3     1  UNL1       -0.4754
     25 C         138.6282  140.3026  156.6446 C.3     1  UNL1        0.2068
     26 C         137.8424  141.1882  157.5657 C.3     1  UNL1        0.0646
     27 C         138.2654  142.6112  157.7799 C.3     1  UNL1        0.0759
     28 N         138.8026  143.0416  159.1126 N.3     1  UNL1       -0.2726
     29 C         139.8833  144.0792  159.1861 C.3     1  UNL1        0.0721
     30 C         140.4204  144.5095  160.5190 C.3     1  UNL1        0.0174
     31 C         139.8769  143.9022  161.7782 C.3     1  UNL1        0.0029
     32 C         138.7962  142.8645  161.7046 C.3     1  UNL1        0.0174
     33 C         138.2591  142.4342  160.3719 C.3     1  UNL1        0.0721
@<TRIPOS>BOND
     1     1     2    2
     2     2    10    1
     3    10    11   ar
     4    11    12   ar
     5    12    13    1
     6    12    14   ar
     7    14    15   ar
     8    15    16    1
     9    15    17   ar
    10     2     3   am
    11     3     4    1
    12     4     5    1
    13     5     6    1
    14     6    18    1
    15    18    19   ar
    16    19    20   ar
    17    20    21   ar
    18    21    24    1
    19    24    25    1
    20    25    26    1
    21    26    27    1
    22    27    28    1
    23    28    29    1
    24    29    30    1
    25    30    31    1
    26    31    32    1
    27    32    33    1
    28    21    22   ar
    29    22    23   ar
    30     6     7   am
    31     7     8    2
    32     7     9    1
    33    17    10   ar
    34     9     3    1
    35    23    18   ar
    36    33    28    1
@<TRIPOS>MOLECULE
*****
 33 36 0 0 0
SMALL
GASTEIGER

@<TRIPOS>ATOM
      1 O         138.3449  139.1323  167.9937 O.2     1  UNL1       -0.2699
      2 C         139.6427  139.7873  167.6241 C.2     1  UNL1        0.2496
      3 N         140.1729  139.6657  166.2262 N.am    1  UNL1       -0.2660
      4 C         141.4707  140.3207  165.8566 C.3     1  UNL1        0.1160
      5 C         142.0008  140.1991  164.4586 C.3     1  UNL1        0.1197
      6 N         141.2331  139.4224  163.4303 N.am    1  UNL1       -0.2555
      7 C         139.9353  138.7674  163.7999 C.2     1  UNL1        0.2497
      8 O         139.1676  137.9908  162.7716 O.2     1  UNL1       -0.2727
      9 C         139.4052  138.8891  165.1978 C.3     1  UNL1        0.1799
     10 C         140.4104  140.5640  168.6525 C.ar    1  UNL1        0.0581
     11 C         141.3971  139.8635  169.5389 C.ar    1  UNL1        0.0343
     12 C         142.1648  140.6402  170.5672 C.ar    1  UNL1        0.1425
     13 F         143.1515  139.9397  171.4536 F       1  UNL1       -0.2041
     14 C         141.9457  142.1173  170.7091 C.ar    1  UNL1        0.0592
     15 C         140.9590  142.8178  169.8227 C.ar    1  UNL1        0.1425
     16 F         140.7400  144.2949  169.9646 F       1  UNL1       -0.2041
     17 C         140.1914  142.0411  168.7944 C.ar    1  UNL1        0.0343
     18 C         141.7633  139.3008  162.0325 C.ar    1  UNL1        0.0541
     19 C         142.9668  138.4485  161.7583 C.ar    1  UNL1        0.0180
     20 C         143.4969  138.3269  160.3603 C.ar    1  UNL1        0.0382
     21 C         142.8235  139.0576  159.2366 C.ar    1  UNL1        0.1386
     22 C         141.6200  139.9099  159.5108 C.ar    1  UNL1        0.0382
     23 C         141.0899  140.0315  160.9087 C.ar    1  UNL1        0.0180
     24 O         143.3537  138.9360  157.8387 O.3     1  UNL1       -0.4754
     25 C         143.8695  140.1497  157.1240 C.3     1  UNL1        0.2068
     26 C         144.7108  141.1514  157.8581 C.3     1  UNL1        0.0646
     27 C         144.1289  142.4780  158.2473 C.3     1  UNL1        0.0759
     28 N         143.7215  142.7302  159.6687 N.3     1  UNL1       -0.2726
     29 C         142.5569  143.6272  159.9672 C.3     1  UNL1        0.0721
     30 C         142.1495  143.8795  161.3886 C.3     1  UNL1        0.0174
     31 C         142.9068  143.2348  162.5115 C.3     1  UNL1        0.0029
     32 C         144.0714  142.3379  162.2131 C.3     1  UNL1        0.0174
     33 C         144.4788  142.0856  160.7917 C.3     1  UNL1        0.0721
@<TRIPOS>BOND
     1     1     2    2
     2     2    10    1
     3    10    11   ar
     4    11    12   ar
     5    12    13    1
     6    12    14   ar
     7    14    15   ar
     8    15    16    1
     9    15    17   ar
    10     2     3   am
    11     3     4    1
    12     4     5    1
    13     5     6    1
    14     6    18    1
    15    18    19   ar
    16    19    20   ar
    17    20    21   ar
    18    21    24    1
    19    24    25    1
    20    25    26    1
    21    26    27    1
    22    27    28    1
    23    28    29    1
    24    29    30    1
    25    30    31    1
    26    31    32    1
    27    32    33    1
    28    21    22   ar
    29    22    23   ar
    30     6     7   am
    31     7     8    2
    32     7     9    1
    33    17    10   ar
    34     9     3    1
    35    23    18   ar
    36    33    28    1
@<TRIPOS>MOLECULE
*****
 33 36 0 0 0
SMALL
GASTEIGER

@<TRIPOS>ATOM
      1 O         138.3135  139.1351  168.1299 O.2     1  UNL1       -0.2699
      2 C         139.4761  139.9399  167.6293 C.2     1  UNL1        0.2496
      3 N         139.7176  140.0717  166.1547 N.am    1  UNL1       -0.2660
      4 C         140.8802  140.8765  165.6541 C.3     1  UNL1        0.1160
      5 C         141.1218  141.0082  164.1795 C.3     1  UNL1        0.1197
      6 N         140.2007  140.3351  163.2056 N.am    1  UNL1       -0.2555
      7 C         139.0381  139.5303  163.7062 C.2     1  UNL1        0.2497
      8 O         138.1170  138.8572  162.7323 O.2     1  UNL1       -0.2727
      9 C         138.7965  139.3985  165.1807 C.3     1  UNL1        0.1799
     10 C         140.3972  140.6130  168.6033 C.ar    1  UNL1        0.0581
     11 C         140.2841  142.0890  168.8453 C.ar    1  UNL1        0.0343
     12 C         141.2051  142.7621  169.8192 C.ar    1  UNL1        0.1425
     13 F         141.0921  144.2381  170.0613 F       1  UNL1       -0.2041
     14 C         142.2393  141.9591  170.5512 C.ar    1  UNL1        0.0592
     15 C         142.3524  140.4831  170.3092 C.ar    1  UNL1        0.1425
     16 F         143.3866  139.6801  171.0411 F       1  UNL1       -0.2041
     17 C         141.4314  139.8101  169.3352 C.ar    1  UNL1        0.0343
     18 C         140.4422  140.4668  161.7311 C.ar    1  UNL1        0.0541
     19 C         141.4989  139.6347  161.0669 C.ar    1  UNL1        0.0180
     20 C         141.7404  139.7665  159.5923 C.ar    1  UNL1        0.0382
     21 C         140.9253  140.7303  158.7820 C.ar    1  UNL1        0.1386
     22 C         139.8687  141.5623  159.4462 C.ar    1  UNL1        0.0382
     23 C         139.6271  141.4306  160.9207 C.ar    1  UNL1        0.0180
     24 O         141.1669  140.8620  157.3074 O.3     1  UNL1       -0.4754
     25 C         141.7015  142.1465  156.7468 C.3     1  UNL1        0.2068
     26 C         142.8033  142.8743  157.4585 C.3     1  UNL1        0.0646
     27 C         142.5266  144.1916  158.1205 C.3     1  UNL1        0.0759
     28 N         142.2183  144.2435  159.5875 N.3     1  UNL1       -0.2726
     29 C         141.1364  145.1501  160.0950 C.3     1  UNL1        0.0721
     30 C         140.8282  145.2021  161.5621 C.3     1  UNL1        0.0174
     31 C         141.6019  144.3474  162.5217 C.3     1  UNL1        0.0029
     32 C         142.6839  143.4408  162.0143 C.3     1  UNL1        0.0174
     33 C         142.9921  143.3888  160.5472 C.3     1  UNL1        0.0721
@<TRIPOS>BOND
     1     1     2    2
     2     2    10    1
     3    10    11   ar
     4    11    12   ar
     5    12    13    1
     6    12    14   ar
     7    14    15   ar
     8    15    16    1
     9    15    17   ar
    10     2     3   am
    11     3     4    1
    12     4     5    1
    13     5     6    1
    14     6    18    1
    15    18    19   ar
    16    19    20   ar
    17    20    21   ar
    18    21    24    1
    19    24    25    1
    20    25    26    1
    21    26    27    1
    22    27    28    1
    23    28    29    1
    24    29    30    1
    25    30    31    1
    26    31    32    1
    27    32    33    1
    28    21    22   ar
    29    22    23   ar
    30     6     7   am
    31     7     8    2
    32     7     9    1
    33    17    10   ar
    34     9     3    1
    35    23    18   ar
    36    33    28    1
@<TRIPOS>MOLECULE
*****
 33 36 0 0 0
SMALL
GASTEIGER

@<TRIPOS>ATOM
      1 O         143.1864  138.7506  168.0692 O.2     1  UNL1       -0.2699
      2 C         142.3506  139.8695  167.5220 C.2     1  UNL1        0.2496
      3 N         142.3992  140.1957  166.0587 N.am    1  UNL1       -0.2660
      4 C         141.5633  141.3145  165.5115 C.3     1  UNL1        0.1160
      5 C         141.6119  141.6407  164.0482 C.3     1  UNL1        0.1197
      6 N         142.4965  140.8480  163.1321 N.am    1  UNL1       -0.2555
      7 C         143.3324  139.7292  163.6793 C.2     1  UNL1        0.2497
      8 O         144.2169  138.9365  162.7632 O.2     1  UNL1       -0.2727
      9 C         143.2837  139.4030  165.1426 C.3     1  UNL1        0.1799
     10 C         141.4660  140.6622  168.4381 C.ar    1  UNL1        0.0581
     11 C         140.1712  140.0787  168.9208 C.ar    1  UNL1        0.0343
     12 C         139.2867  140.8714  169.8370 C.ar    1  UNL1        0.1425
     13 F         137.9919  140.2880  170.3197 F       1  UNL1       -0.2041
     14 C         139.6971  142.2476  170.2704 C.ar    1  UNL1        0.0592
     15 C         140.9918  142.8310  169.7877 C.ar    1  UNL1        0.1425
     16 F         141.4022  144.2072  170.2211 F       1  UNL1       -0.2041
     17 C         141.8763  142.0383  168.8716 C.ar    1  UNL1        0.0343
     18 C         142.5451  141.1742  161.6688 C.ar    1  UNL1        0.0541
     19 C         143.2676  142.4014  161.1976 C.ar    1  UNL1        0.0180
     20 C         143.3162  142.7275  159.7342 C.ar    1  UNL1        0.0382
     21 C         142.6423  141.8266  158.7422 C.ar    1  UNL1        0.1386
     22 C         141.9198  140.5994  159.2135 C.ar    1  UNL1        0.0382
     23 C         141.8712  140.2732  160.6767 C.ar    1  UNL1        0.0180
     24 O         142.6909  142.1527  157.2790 O.3     1  UNL1       -0.4754
     25 C         141.7145  143.1306  156.6957 C.3     1  UNL1        0.2068
     26 C         140.2493  142.8094  156.6813 C.3     1  UNL1        0.0646
     27 C         139.2944  143.6261  157.5006 C.3     1  UNL1        0.0759
     28 N         139.5646  143.8579  158.9577 N.3     1  UNL1       -0.2726
     29 C         140.3217  145.0765  159.3955 C.3     1  UNL1        0.0721
     30 C         140.5919  145.3083  160.8527 C.3     1  UNL1        0.0174
     31 C         140.1050  144.3214  161.8720 C.3     1  UNL1        0.0029
     32 C         139.3479  143.1027  161.4341 C.3     1  UNL1        0.0174
     33 C         139.0777  142.8710  159.9770 C.3     1  UNL1        0.0721
@<TRIPOS>BOND
     1     1     2    2
     2     2    10    1
     3    10    11   ar
     4    11    12   ar
     5    12    13    1
     6    12    14   ar
     7    14    15   ar
     8    15    16    1
     9    15    17   ar
    10     2     3   am
    11     3     4    1
    12     4     5    1
    13     5     6    1
    14     6    18    1
    15    18    19   ar
    16    19    20   ar
    17    20    21   ar
    18    21    24    1
    19    24    25    1
    20    25    26    1
    21    26    27    1
    22    27    28    1
    23    28    29    1
    24    29    30    1
    25    30    31    1
    26    31    32    1
    27    32    33    1
    28    21    22   ar
    29    22    23   ar
    30     6     7   am
    31     7     8    2
    32     7     9    1
    33    17    10   ar
    34     9     3    1
    35    23    18   ar
    36    33    28    1
@<TRIPOS>MOLECULE
*****
 33 36 0 0 0
SMALL
GASTEIGER

@<TRIPOS>ATOM
      1 O         144.9265  137.2687  155.4931 O.2     1  UNL1       -0.2699
      2 C         143.5573  136.8777  155.9646 C.2     1  UNL1        0.2496
      3 N         142.7483  137.8318  156.7924 N.am    1  UNL1       -0.2660
      4 C         141.3790  137.4408  157.2639 C.3     1  UNL1        0.1160
      5 C         140.5700  138.3949  158.0918 C.3     1  UNL1        0.1197
      6 N         141.1303  139.7400  158.4481 N.am    1  UNL1       -0.2555
      7 C         142.4995  140.1309  157.9766 C.2     1  UNL1        0.2497
      8 O         143.0598  141.4759  158.3328 O.2     1  UNL1       -0.2727
      9 C         143.3085  139.1769  157.1488 C.3     1  UNL1        0.1799
     10 C         142.9970  135.5326  155.6083 C.ar    1  UNL1        0.0581
     11 C         142.3236  135.3276  154.2838 C.ar    1  UNL1        0.0343
     12 C         141.7634  133.9826  153.9275 C.ar    1  UNL1        0.1425
     13 F         141.0899  133.7775  152.6029 F       1  UNL1       -0.2041
     14 C         141.8766  132.8425  154.8958 C.ar    1  UNL1        0.0592
     15 C         142.5500  133.0476  156.2203 C.ar    1  UNL1        0.1425
     16 F         142.6632  131.9075  157.1886 F       1  UNL1       -0.2041
     17 C         143.1102  134.3926  156.5766 C.ar    1  UNL1        0.0343
     18 C         140.3213  140.6940  159.2759 C.ar    1  UNL1        0.0541
     19 C         140.5512  140.7844  160.7554 C.ar    1  UNL1        0.0180
     20 C         139.7422  141.7385  161.5832 C.ar    1  UNL1        0.0382
     21 C         138.7033  142.6022  160.9315 C.ar    1  UNL1        0.1386
     22 C         138.4733  142.5117  159.4519 C.ar    1  UNL1        0.0382
     23 C         139.2823  141.5577  158.6242 C.ar    1  UNL1        0.0180
     24 O         137.8943  143.5562  161.7593 O.3     1  UNL1       -0.4754
     25 C         137.6594  143.2743  163.2137 C.3     1  UNL1        0.2068
     26 C         138.4210  144.0359  164.2578 C.3     1  UNL1        0.0646
     27 C         139.5533  144.9334  163.8547 C.3     1  UNL1        0.0759
     28 N         140.9698  144.5219  164.1268 N.3     1  UNL1       -0.2726
     29 C         142.1031  145.4067  163.6994 C.3     1  UNL1        0.0721
     30 C         143.5197  144.9952  163.9716 C.3     1  UNL1        0.0174
     31 C         143.8029  143.6989  164.6711 C.3     1  UNL1        0.0029
     32 C         142.6696  142.8141  165.0985 C.3     1  UNL1        0.0174
     33 C         141.2531  143.2255  164.8264 C.3     1  UNL1        0.0721
@<TRIPOS>BOND
     1     1     2    2
     2     2    10    1
     3    10    11   ar
     4    11    12   ar
     5    12    13    1
     6    12    14   ar
     7    14    15   ar
     8    15    16    1
     9    15    17   ar
    10     2     3   am
    11     3     4    1
    12     4     5    1
    13     5     6    1
    14     6    18    1
    15    18    19   ar
    16    19    20   ar
    17    20    21   ar
    18    21    24    1
    19    24    25    1
    20    25    26    1
    21    26    27    1
    22    27    28    1
    23    28    29    1
    24    29    30    1
    25    30    31    1
    26    31    32    1
    27    32    33    1
    28    21    22   ar
    29    22    23   ar
    30     6     7   am
    31     7     8    2
    32     7     9    1
    33    17    10   ar
    34     9     3    1
    35    23    18   ar
    36    33    28    1
@<TRIPOS>MOLECULE
*****
 33 36 0 0 0
SMALL
GASTEIGER

@<TRIPOS>ATOM
      1 O         138.4880  139.1354  168.1203 O.2     1  UNL1       -0.2699
      2 C         139.4578  140.1420  167.5760 C.2     1  UNL1        0.2496
      3 N         139.5061  140.4161  166.1021 N.am    1  UNL1       -0.2660
      4 C         140.4759  141.4227  165.5578 C.3     1  UNL1        0.1160
      5 C         140.5242  141.6968  164.0838 C.3     1  UNL1        0.1197
      6 N         139.6026  140.9644  163.1542 N.am    1  UNL1       -0.2555
      7 C         138.6328  139.9579  163.6985 C.2     1  UNL1        0.2497
      8 O         137.7112  139.2255  162.7688 O.2     1  UNL1       -0.2727
      9 C         138.5845  139.6837  165.1724 C.3     1  UNL1        0.1799
     10 C         140.3794  140.8744  168.5057 C.ar    1  UNL1        0.0581
     11 C         141.5363  140.1562  169.1347 C.ar    1  UNL1        0.0343
     12 C         142.4579  140.8886  170.0644 C.ar    1  UNL1        0.1425
     13 F         143.6149  140.1705  170.6935 F       1  UNL1       -0.2041
     14 C         142.2224  142.3392  170.3651 C.ar    1  UNL1        0.0592
     15 C         141.0655  143.0574  169.7361 C.ar    1  UNL1        0.1425
     16 F         140.8301  144.5079  170.0368 F       1  UNL1       -0.2041
     17 C         140.1440  142.3250  168.8064 C.ar    1  UNL1        0.0343
     18 C         139.6509  141.2386  161.6803 C.ar    1  UNL1        0.0541
     19 C         140.6503  140.5268  160.8174 C.ar    1  UNL1        0.0180
     20 C         140.6985  140.8011  159.3434 C.ar    1  UNL1        0.0382
     21 C         139.7474  141.7870  158.7324 C.ar    1  UNL1        0.1386
     22 C         138.7481  142.4988  159.5953 C.ar    1  UNL1        0.0382
     23 C         138.6998  142.2246  161.0693 C.ar    1  UNL1        0.0180
     24 O         139.7957  142.0612  157.2585 O.3     1  UNL1       -0.4754
     25 C         141.1171  142.2437  156.5725 C.3     1  UNL1        0.2068
     26 C         141.6981  143.6179  156.4172 C.3     1  UNL1        0.0646
     27 C         142.6795  144.1356  157.4266 C.3     1  UNL1        0.0759
     28 N         142.2685  144.2919  158.8606 N.3     1  UNL1       -0.2726
     29 C         142.9427  143.4803  159.9268 C.3     1  UNL1        0.0721
     30 C         142.5317  143.6367  161.3609 C.3     1  UNL1        0.0174
     31 C         141.4464  144.6046  161.7288 C.3     1  UNL1        0.0029
     32 C         140.7722  145.4162  160.6626 C.3     1  UNL1        0.0174
     33 C         141.1832  145.2599  159.2286 C.3     1  UNL1        0.0721
@<TRIPOS>BOND
     1     1     2    2
     2     2    10    1
     3    10    11   ar
     4    11    12   ar
     5    12    13    1
     6    12    14   ar
     7    14    15   ar
     8    15    16    1
     9    15    17   ar
    10     2     3   am
    11     3     4    1
    12     4     5    1
    13     5     6    1
    14     6    18    1
    15    18    19   ar
    16    19    20   ar
    17    20    21   ar
    18    21    24    1
    19    24    25    1
    20    25    26    1
    21    26    27    1
    22    27    28    1
    23    28    29    1
    24    29    30    1
    25    30    31    1
    26    31    32    1
    27    32    33    1
    28    21    22   ar
    29    22    23   ar
    30     6     7   am
    31     7     8    2
    32     7     9    1
    33    17    10   ar
    34     9     3    1
    35    23    18   ar
    36    33    28    1
@<TRIPOS>MOLECULE
*****
 33 36 0 0 0
SMALL
GASTEIGER

@<TRIPOS>ATOM
      1 O         143.2905  138.6804  168.0760 O.2     1  UNL1       -0.2699
      2 C         142.4551  139.7853  167.5004 C.2     1  UNL1        0.2496
      3 N         142.5080  140.0774  166.0301 N.am    1  UNL1       -0.2660
      4 C         141.6726  141.1823  165.4544 C.3     1  UNL1        0.1160
      5 C         141.7255  141.4743  163.9840 C.3     1  UNL1        0.1197
      6 N         142.6137  140.6615  163.0894 N.am    1  UNL1       -0.2555
      7 C         143.4490  139.5566  163.6650 C.2     1  UNL1        0.2497
      8 O         144.3372  138.7438  162.7704 O.2     1  UNL1       -0.2727
      9 C         143.3962  139.2645  165.1353 C.3     1  UNL1        0.1799
     10 C         141.5669  140.5982  168.3951 C.ar    1  UNL1        0.0581
     11 C         140.2403  140.0514  168.8323 C.ar    1  UNL1        0.0343
     12 C         139.3522  140.8642  169.7269 C.ar    1  UNL1        0.1425
     13 F         138.0256  140.3175  170.1642 F       1  UNL1       -0.2041
     14 C         139.7907  142.2238  170.1844 C.ar    1  UNL1        0.0592
     15 C         141.1173  142.7706  169.7472 C.ar    1  UNL1        0.1425
     16 F         141.5557  144.1302  170.2047 F       1  UNL1       -0.2041
     17 C         142.0054  141.9577  168.8526 C.ar    1  UNL1        0.0343
     18 C         142.6665  140.9536  161.6190 C.ar    1  UNL1        0.0541
     19 C         143.5186  142.0772  161.1077 C.ar    1  UNL1        0.0180
     20 C         143.5714  142.3692  159.6373 C.ar    1  UNL1        0.0382
     21 C         142.7721  141.5377  158.6783 C.ar    1  UNL1        0.1386
     22 C         141.9200  140.4142  159.1897 C.ar    1  UNL1        0.0382
     23 C         141.8672  140.1221  160.6600 C.ar    1  UNL1        0.0180
     24 O         142.8250  141.8298  157.2080 O.3     1  UNL1       -0.4754
     25 C         144.0393  142.4817  156.6160 C.3     1  UNL1        0.2068
     26 C         145.3302  141.7228  156.5277 C.3     1  UNL1        0.0646
     27 C         146.6351  142.4381  156.7159 C.3     1  UNL1        0.0759
     28 N         147.5775  142.5958  155.5596 N.3     1  UNL1       -0.2726
     29 C         148.8009  141.7330  155.4661 C.3     1  UNL1        0.0721
     30 C         149.7434  141.8908  154.3098 C.3     1  UNL1        0.0174
     31 C         149.4623  142.9112  153.2470 C.3     1  UNL1        0.0029
     32 C         148.2388  143.7740  153.3405 C.3     1  UNL1        0.0174
     33 C         147.2964  143.6163  154.4967 C.3     1  UNL1        0.0721
@<TRIPOS>BOND
     1     1     2    2
     2     2    10    1
     3    10    11   ar
     4    11    12   ar
     5    12    13    1
     6    12    14   ar
     7    14    15   ar
     8    15    16    1
     9    15    17   ar
    10     2     3   am
    11     3     4    1
    12     4     5    1
    13     5     6    1
    14     6    18    1
    15    18    19   ar
    16    19    20   ar
    17    20    21   ar
    18    21    24    1
    19    24    25    1
    20    25    26    1
    21    26    27    1
    22    27    28    1
    23    28    29    1
    24    29    30    1
    25    30    31    1
    26    31    32    1
    27    32    33    1
    28    21    22   ar
    29    22    23   ar
    30     6     7   am
    31     7     8    2
    32     7     9    1
    33    17    10   ar
    34     9     3    1
    35    23    18   ar
    36    33    28    1
