@<TRIPOS>MOLECULE
*****
 38 43 0 0 0
SMALL
GASTEIGER

@<TRIPOS>ATOM
      1 C         143.6118  142.7706  158.7411 C.3     1  UNL1        0.0666
      2 S         144.6426  142.5174  159.8009 S.3     1  UNL1       -0.0756
      3 C         143.8311  140.0035  161.7171 C.3     1  UNL1        0.1340
      4 N         143.8910  141.4441  162.1308 N.ar    1  UNL1       -0.2884
      5 C         144.2640  142.5996  161.2501 C.ar    1  UNL1        0.1932
      6 N         144.1921  143.8517  162.0728 N.ar    1  UNL1       -0.1221
      7 N         143.7745  143.4701  163.4621 N.ar    1  UNL1       -0.1282
      8 C         143.5885  141.9821  163.4980 C.ar    1  UNL1        0.1668
      9 C         143.1729  141.1741  164.6915 C.ar    1  UNL1        0.0361
     10 C         142.8177  139.7257  164.5298 C.ar    1  UNL1        0.0031
     11 C         142.4021  138.9177  165.7232 C.ar    1  UNL1        0.0003
     12 C         142.3417  139.5581  167.0784 C.ar    1  UNL1        0.0047
     13 C         142.6969  141.0064  167.2400 C.ar    1  UNL1        0.0537
     14 C         143.1125  141.8144  166.0465 C.ar    1  UNL1        0.0077
     15 C         142.6365  141.6467  168.5952 C.ar    1  UNL1        0.2299
     16 N         141.6322  141.3465  169.6681 N.ar    1  UNL1       -0.2065
     17 C         141.9447  142.2138  170.8513 C.ar    1  UNL1        0.1427
     18 C         143.1422  143.0500  170.5097 C.ar    1  UNL1        0.2021
     19 O         143.5698  142.6995  169.1153 O.2     1  UNL1       -0.4314
     20 C         142.3351  141.9831  158.7331 C.3     1  UNL1        0.0294
     21 C         141.0333  142.6618  159.0407 C.3     1  UNL1        0.0730
     22 N         140.8801  143.4518  160.3065 N.3     1  UNL1       -0.2726
     23 C         141.1600  144.9162  160.4712 C.3     1  UNL1        0.0721
     24 C         140.8729  145.2855  161.8964 C.3     1  UNL1        0.0190
     25 C         140.4155  144.0494  162.6125 C.3     1  UNL1        0.0201
     26 C         140.2153  144.7059  163.9463 C.3     1  UNL1        0.0061
     27 C         139.9353  143.2415  163.7816 C.3     1  UNL1        0.0237
     28 C         140.4199  142.9161  161.6299 C.3     1  UNL1        0.0724
     29 C         139.4964  141.9295  164.3614 C.ar    1  UNL1       -0.0225
     30 C         139.4807  141.7346  165.8486 C.ar    1  UNL1       -0.0043
     31 C         139.0418  140.4226  166.4284 C.ar    1  UNL1        0.0035
     32 C         138.6187  139.3057  165.5210 C.ar    1  UNL1        0.0714
     33 C         138.6344  139.5007  164.0338 C.ar    1  UNL1        0.0035
     34 C         139.0733  140.8126  163.4540 C.ar    1  UNL1       -0.0043
     35 C         138.1798  137.9938  166.1008 C.3     1  UNL1        0.4186
     36 F         137.7409  136.6817  166.6807 F       1  UNL1       -0.1659
     37 F         137.3631  138.7208  167.1277 F       1  UNL1       -0.1659
     38 F         138.9964  137.2667  165.0740 F       1  UNL1       -0.1659
@<TRIPOS>BOND
     1     3     4    1
     2     4     5   ar
     3     5     2    1
     4     2     1    1
     5     1    20    1
     6    20    21    1
     7    21    22    1
     8    22    23    1
     9    23    24    1
    10    25    24    1
    11    25    26    1
    12    26    27    1
    13    27    29    1
    14    29    30   ar
    15    30    31   ar
    16    31    32   ar
    17    32    35    1
    18    35    36    1
    19    35    37    1
    20    35    38    1
    21    32    33   ar
    22    33    34   ar
    23    25    28    1
    24     5     6   ar
    25     6     7   ar
    26     7     8   ar
    27     8     9    1
    28     9    10   ar
    29    10    11   ar
    30    11    12   ar
    31    12    13   ar
    32    13    15    1
    33    15    16   ar
    34    16    17   ar
    35    17    18   ar
    36    18    19   ar
    37    13    14   ar
    38     8     4   ar
    39    14     9   ar
    40    28    22    1
    41    19    15   ar
    42    27    25    1
    43    34    29   ar
@<TRIPOS>MOLECULE
*****
 38 43 0 0 0
SMALL
GASTEIGER

@<TRIPOS>ATOM
      1 C         138.5407  142.5214  158.8890 C.3     1  UNL1        0.0666
      2 S         138.1713  141.4185  159.8361 S.3     1  UNL1       -0.0756
      3 C         139.0200  139.3146  162.1820 C.3     1  UNL1        0.1340
      4 N         138.5197  140.7133  162.3908 N.ar    1  UNL1       -0.2884
      5 C         138.1297  141.6803  161.3125 C.ar    1  UNL1        0.1932
      6 N         137.6906  142.9552  161.9697 N.ar    1  UNL1       -0.1221
      7 N         137.8093  142.7761  163.4543 N.ar    1  UNL1       -0.1282
      8 C         138.3218  141.3905  163.7146 C.ar    1  UNL1        0.1668
      9 C         138.5893  140.7880  165.0619 C.ar    1  UNL1        0.0361
     10 C         137.9896  139.4612  165.4226 C.ar    1  UNL1        0.0031
     11 C         138.2571  138.8587  166.7700 C.ar    1  UNL1        0.0003
     12 C         139.1243  139.5831  167.7567 C.ar    1  UNL1        0.0047
     13 C         139.7239  140.9098  167.3960 C.ar    1  UNL1        0.0537
     14 C         139.4564  141.5123  166.0485 C.ar    1  UNL1        0.0077
     15 C         140.5911  141.6340  168.3826 C.ar    1  UNL1        0.2299
     16 N         140.4511  143.0704  168.7916 N.ar    1  UNL1       -0.2065
     17 C         141.5239  143.3732  169.7953 C.ar    1  UNL1        0.1427
     18 C         142.3269  142.1240  170.0067 C.ar    1  UNL1        0.2021
     19 O         141.7503  141.0491  169.1336 O.2     1  UNL1       -0.4314
     20 C         139.8487  142.4740  158.1561 C.3     1  UNL1        0.0294
     21 C         141.0348  143.2216  158.6894 C.3     1  UNL1        0.0730
     22 N         140.9236  143.9855  159.9754 N.3     1  UNL1       -0.2726
     23 C         140.4082  145.3860  160.1273 C.3     1  UNL1        0.0721
     24 C         140.4744  145.7491  161.5812 C.3     1  UNL1        0.0190
     25 C         141.0307  144.5730  162.3279 C.3     1  UNL1        0.0201
     26 C         140.9783  145.2099  163.6849 C.3     1  UNL1        0.0061
     27 C         141.4937  143.8094  163.5331 C.3     1  UNL1        0.0237
     28 C         141.3083  143.4831  161.3354 C.3     1  UNL1        0.0724
     29 C         142.0585  142.5600  164.1412 C.ar    1  UNL1       -0.0225
     30 C         142.7537  142.6201  165.4690 C.ar    1  UNL1       -0.0043
     31 C         143.3185  141.3707  166.0771 C.ar    1  UNL1        0.0035
     32 C         143.1882  140.0611  165.3574 C.ar    1  UNL1        0.0714
     33 C         142.4931  140.0010  164.0295 C.ar    1  UNL1        0.0035
     34 C         141.9282  141.2504  163.4214 C.ar    1  UNL1       -0.0043
     35 C         143.7531  138.8117  165.9655 C.3     1  UNL1        0.4186
     36 F         144.3180  137.5621  166.5736 F       1  UNL1       -0.1659
     37 F         142.5646  138.7174  166.8757 F       1  UNL1       -0.1659
     38 F         144.9416  138.9059  165.0553 F       1  UNL1       -0.1659
@<TRIPOS>BOND
     1     3     4    1
     2     4     5   ar
     3     5     2    1
     4     2     1    1
     5     1    20    1
     6    20    21    1
     7    21    22    1
     8    22    23    1
     9    23    24    1
    10    25    24    1
    11    25    26    1
    12    26    27    1
    13    27    29    1
    14    29    30   ar
    15    30    31   ar
    16    31    32   ar
    17    32    35    1
    18    35    36    1
    19    35    37    1
    20    35    38    1
    21    32    33   ar
    22    33    34   ar
    23    25    28    1
    24     5     6   ar
    25     6     7   ar
    26     7     8   ar
    27     8     9    1
    28     9    10   ar
    29    10    11   ar
    30    11    12   ar
    31    12    13   ar
    32    13    15    1
    33    15    16   ar
    34    16    17   ar
    35    17    18   ar
    36    18    19   ar
    37    13    14   ar
    38     8     4   ar
    39    14     9   ar
    40    28    22    1
    41    19    15   ar
    42    27    25    1
    43    34    29   ar
@<TRIPOS>MOLECULE
*****
 38 43 0 0 0
SMALL
GASTEIGER

@<TRIPOS>ATOM
      1 C         140.8365  145.5390  160.9206 C.3     1  UNL1        0.0666
      2 S         139.8120  145.6970  162.0047 S.3     1  UNL1       -0.0756
      3 C         141.0157  143.8637  164.4213 C.3     1  UNL1        0.1340
      4 N         139.7123  143.6431  163.7125 N.ar    1  UNL1       -0.2884
      5 C         139.1590  144.4858  162.6018 C.ar    1  UNL1        0.1932
      6 N         137.8380  143.9046  162.1928 N.ar    1  UNL1       -0.1221
      7 N         137.5749  142.7027  163.0509 N.ar    1  UNL1       -0.1282
      8 C         138.7332  142.5411  163.9901 C.ar    1  UNL1        0.1668
      9 C         138.8857  141.4662  165.0252 C.ar    1  UNL1        0.0361
     10 C         138.0170  140.2445  164.9715 C.ar    1  UNL1        0.0031
     11 C         138.1695  139.1696  166.0065 C.ar    1  UNL1        0.0003
     12 C         139.1908  139.3165  167.0953 C.ar    1  UNL1        0.0047
     13 C         140.0596  140.5381  167.1491 C.ar    1  UNL1        0.0537
     14 C         139.9070  141.6130  166.1139 C.ar    1  UNL1        0.0077
     15 C         141.0808  140.6848  168.2379 C.ar    1  UNL1        0.2299
     16 N         140.9897  140.1010  169.6166 N.ar    1  UNL1       -0.2065
     17 C         142.2250  140.4965  170.3699 C.ar    1  UNL1        0.1427
     18 C         143.0796  141.3246  169.4569 C.ar    1  UNL1        0.2021
     19 O         142.3725  141.4410  168.1391 O.2     1  UNL1       -0.4314
     20 C         140.4053  145.1964  159.5254 C.3     1  UNL1        0.0294
     21 C         140.7054  143.8401  158.9593 C.3     1  UNL1        0.0730
     22 N         139.8150  142.6777  159.2850 N.3     1  UNL1       -0.2726
     23 C         138.5164  142.3459  158.6115 C.3     1  UNL1        0.0721
     24 C         137.9658  141.1062  159.2516 C.3     1  UNL1        0.0190
     25 C         138.9241  140.6717  160.3207 C.3     1  UNL1        0.0201
     26 C         138.1388  139.4703  160.7564 C.3     1  UNL1        0.0061
     27 C         139.4374  139.8020  161.4299 C.3     1  UNL1        0.0237
     28 C         140.0670  141.6430  160.3413 C.3     1  UNL1        0.0724
     29 C         140.4835  139.4914  162.4590 C.ar    1  UNL1       -0.0225
     30 C         140.4667  138.1712  163.1708 C.ar    1  UNL1       -0.0043
     31 C         141.5127  137.8606  164.2000 C.ar    1  UNL1        0.0035
     32 C         142.5756  138.8703  164.5174 C.ar    1  UNL1        0.0714
     33 C         142.5924  140.1906  163.8056 C.ar    1  UNL1        0.0035
     34 C         141.5464  140.5011  162.7764 C.ar    1  UNL1       -0.0043
     35 C         143.6217  138.5597  165.5465 C.3     1  UNL1        0.4186
     36 F         144.6679  138.2491  166.5758 F       1  UNL1       -0.1659
     37 F         144.6964  138.8244  164.5341 F       1  UNL1       -0.1659
     38 F         142.5471  138.2951  166.5590 F       1  UNL1       -0.1659
@<TRIPOS>BOND
     1     3     4    1
     2     4     5   ar
     3     5     2    1
     4     2     1    1
     5     1    20    1
     6    20    21    1
     7    21    22    1
     8    22    23    1
     9    23    24    1
    10    25    24    1
    11    25    26    1
    12    26    27    1
    13    27    29    1
    14    29    30   ar
    15    30    31   ar
    16    31    32   ar
    17    32    35    1
    18    35    36    1
    19    35    37    1
    20    35    38    1
    21    32    33   ar
    22    33    34   ar
    23    25    28    1
    24     5     6   ar
    25     6     7   ar
    26     7     8   ar
    27     8     9    1
    28     9    10   ar
    29    10    11   ar
    30    11    12   ar
    31    12    13   ar
    32    13    15    1
    33    15    16   ar
    34    16    17   ar
    35    17    18   ar
    36    18    19   ar
    37    13    14   ar
    38     8     4   ar
    39    14     9   ar
    40    28    22    1
    41    19    15   ar
    42    27    25    1
    43    34    29   ar
@<TRIPOS>MOLECULE
*****
 38 43 0 0 0
SMALL
GASTEIGER

@<TRIPOS>ATOM
      1 C         141.0526  145.2071  159.1795 C.3     1  UNL1        0.0666
      2 S         140.2798  145.4769  160.4364 S.3     1  UNL1       -0.0756
      3 C         142.4057  144.3651  162.6487 C.3     1  UNL1        0.1340
      4 N         141.0103  143.8582  162.4343 N.ar    1  UNL1       -0.2884
      5 C         140.0331  144.3692  161.4174 C.ar    1  UNL1        0.1932
      6 N         138.7660  143.5782  161.5538 N.ar    1  UNL1       -0.1221
      7 N         138.9601  142.5782  162.6549 N.ar    1  UNL1       -0.1282
      8 C         140.3471  142.7513  163.1991 C.ar    1  UNL1        0.1668
      9 C         140.9629  141.9569  164.3126 C.ar    1  UNL1        0.0361
     10 C         142.2300  141.1901  164.0753 C.ar    1  UNL1        0.0031
     11 C         142.8457  140.3957  165.1887 C.ar    1  UNL1        0.0003
     12 C         142.1942  140.3682  166.5397 C.ar    1  UNL1        0.0047
     13 C         140.9271  141.1351  166.7770 C.ar    1  UNL1        0.0537
     14 C         140.3114  141.9294  165.6635 C.ar    1  UNL1        0.0077
     15 C         140.2757  141.1075  168.1279 C.ar    1  UNL1        0.2299
     16 N         139.5154  139.9563  168.7168 N.ar    1  UNL1       -0.2065
     17 C         139.0400  140.3636  170.0799 C.ar    1  UNL1        0.1427
     18 C         139.5065  141.7665  170.3335 C.ar    1  UNL1        0.2021
     19 O         140.2702  142.2263  169.1271 O.2     1  UNL1       -0.4314
     20 C         141.7894  143.9108  159.0157 C.3     1  UNL1        0.0294
     21 C         141.0364  142.6570  158.6827 C.3     1  UNL1        0.0730
     22 N         141.6731  141.3176  158.9075 N.3     1  UNL1       -0.2726
     23 C         142.7218  140.6835  158.0425 C.3     1  UNL1        0.0721
     24 C         143.0698  139.3512  158.6373 C.3     1  UNL1        0.0190
     25 C         142.2362  139.1618  159.8699 C.3     1  UNL1        0.0201
     26 C         142.7823  137.8100  160.2224 C.3     1  UNL1        0.0061
     27 C         141.7336  138.4440  161.0874 C.3     1  UNL1        0.0237
     28 C         141.3730  140.3771  160.0369 C.3     1  UNL1        0.0724
     29 C         140.8380  138.3957  162.2897 C.ar    1  UNL1       -0.0225
     30 C         139.4882  139.0485  162.2461 C.ar    1  UNL1       -0.0043
     31 C         138.5926  139.0002  163.4484 C.ar    1  UNL1        0.0035
     32 C         139.0468  138.2991  164.6943 C.ar    1  UNL1        0.0714
     33 C         140.3966  137.6463  164.7378 C.ar    1  UNL1        0.0035
     34 C         141.2922  137.6946  163.5355 C.ar    1  UNL1       -0.0043
     35 C         138.1512  138.2508  165.8966 C.3     1  UNL1        0.4186
     36 F         137.2555  138.2025  167.0989 F       1  UNL1       -0.1659
     37 F         137.9947  139.7415  165.8399 F       1  UNL1       -0.1659
     38 F         138.3076  136.7601  165.9532 F       1  UNL1       -0.1659
@<TRIPOS>BOND
     1     3     4    1
     2     4     5   ar
     3     5     2    1
     4     2     1    1
     5     1    20    1
     6    20    21    1
     7    21    22    1
     8    22    23    1
     9    23    24    1
    10    25    24    1
    11    25    26    1
    12    26    27    1
    13    27    29    1
    14    29    30   ar
    15    30    31   ar
    16    31    32   ar
    17    32    35    1
    18    35    36    1
    19    35    37    1
    20    35    38    1
    21    32    33   ar
    22    33    34   ar
    23    25    28    1
    24     5     6   ar
    25     6     7   ar
    26     7     8   ar
    27     8     9    1
    28     9    10   ar
    29    10    11   ar
    30    11    12   ar
    31    12    13   ar
    32    13    15    1
    33    15    16   ar
    34    16    17   ar
    35    17    18   ar
    36    18    19   ar
    37    13    14   ar
    38     8     4   ar
    39    14     9   ar
    40    28    22    1
    41    19    15   ar
    42    27    25    1
    43    34    29   ar
@<TRIPOS>MOLECULE
*****
 38 43 0 0 0
SMALL
GASTEIGER

@<TRIPOS>ATOM
      1 C         141.1509  143.9031  159.4703 C.3     1  UNL1        0.0666
      2 S         141.1751  144.1571  160.9484 S.3     1  UNL1       -0.0756
      3 C         141.8783  142.0204  163.3126 C.3     1  UNL1        0.1340
      4 N         140.5068  142.4920  162.9298 N.ar    1  UNL1       -0.2884
      5 C         140.1836  143.4742  161.8431 C.ar    1  UNL1        0.1932
      6 N         138.6948  143.6535  161.8081 N.ar    1  UNL1       -0.1221
      7 N         138.0978  142.7822  162.8732 N.ar    1  UNL1       -0.1282
      8 C         139.2177  142.0643  163.5665 C.ar    1  UNL1        0.1668
      9 C         139.0737  141.0898  164.6977 C.ar    1  UNL1        0.0361
     10 C         138.3974  139.7705  164.4697 C.ar    1  UNL1        0.0031
     11 C         138.2534  138.7961  165.6010 C.ar    1  UNL1        0.0003
     12 C         138.7859  139.1410  166.9603 C.ar    1  UNL1        0.0047
     13 C         139.4623  140.4603  167.1883 C.ar    1  UNL1        0.0537
     14 C         139.6062  141.4347  166.0569 C.ar    1  UNL1        0.0077
     15 C         139.9947  140.8052  168.5475 C.ar    1  UNL1        0.2299
     16 N         140.0295  139.8934  169.7381 N.ar    1  UNL1       -0.2065
     17 C         140.6421  140.6470  170.8812 C.ar    1  UNL1        0.1427
     18 C         140.9859  142.0245  170.3972 C.ar    1  UNL1        0.2021
     19 O         140.5857  142.1222  168.9549 O.2     1  UNL1       -0.4314
     20 C         142.4311  143.9016  158.6885 C.3     1  UNL1        0.0294
     21 C         143.5555  142.9946  159.0923 C.3     1  UNL1        0.0730
     22 N         143.3710  141.5066  159.0501 N.3     1  UNL1       -0.2726
     23 C         143.2538  140.6674  157.8123 C.3     1  UNL1        0.0721
     24 C         143.0816  139.2387  158.2356 C.3     1  UNL1        0.0190
     25 C         143.0923  139.1949  159.7349 C.3     1  UNL1        0.0201
     26 C         142.9099  137.7105  159.8497 C.3     1  UNL1        0.0061
     27 C         143.0271  138.5496  161.0874 C.3     1  UNL1        0.0237
     28 C         143.2712  140.5965  160.2383 C.3     1  UNL1        0.0724
     29 C         143.0570  138.6616  162.5829 C.ar    1  UNL1       -0.0225
     30 C         144.2904  139.1645  163.2729 C.ar    1  UNL1       -0.0043
     31 C         144.3203  139.2764  164.7684 C.ar    1  UNL1        0.0035
     32 C         143.1169  138.8855  165.5739 C.ar    1  UNL1        0.0714
     33 C         141.8835  138.3827  164.8840 C.ar    1  UNL1        0.0035
     34 C         141.8536  138.2707  163.3885 C.ar    1  UNL1       -0.0043
     35 C         143.1468  138.9975  167.0694 C.3     1  UNL1        0.4186
     36 F         143.1768  139.1095  168.5650 F       1  UNL1       -0.1659
     37 F         143.6315  137.5813  167.1658 F       1  UNL1       -0.1659
     38 F         142.6622  140.4138  166.9731 F       1  UNL1       -0.1659
@<TRIPOS>BOND
     1     3     4    1
     2     4     5   ar
     3     5     2    1
     4     2     1    1
     5     1    20    1
     6    20    21    1
     7    21    22    1
     8    22    23    1
     9    23    24    1
    10    25    24    1
    11    25    26    1
    12    26    27    1
    13    27    29    1
    14    29    30   ar
    15    30    31   ar
    16    31    32   ar
    17    32    35    1
    18    35    36    1
    19    35    37    1
    20    35    38    1
    21    32    33   ar
    22    33    34   ar
    23    25    28    1
    24     5     6   ar
    25     6     7   ar
    26     7     8   ar
    27     8     9    1
    28     9    10   ar
    29    10    11   ar
    30    11    12   ar
    31    12    13   ar
    32    13    15    1
    33    15    16   ar
    34    16    17   ar
    35    17    18   ar
    36    18    19   ar
    37    13    14   ar
    38     8     4   ar
    39    14     9   ar
    40    28    22    1
    41    19    15   ar
    42    27    25    1
    43    34    29   ar
@<TRIPOS>MOLECULE
*****
 38 43 0 0 0
SMALL
GASTEIGER

@<TRIPOS>ATOM
      1 C         143.3907  141.9042  158.7280 C.3     1  UNL1        0.0666
      2 S         143.6771  142.7197  159.9539 S.3     1  UNL1       -0.0756
      3 C         144.7254  140.7357  162.3234 C.3     1  UNL1        0.1340
      4 N         143.4410  141.5104  162.3261 N.ar    1  UNL1       -0.2884
      5 C         142.9591  142.4224  161.2369 C.ar    1  UNL1        0.1932
      6 N         141.6332  142.9848  161.6560 N.ar    1  UNL1       -0.1221
      7 N         141.2956  142.4205  163.0042 N.ar    1  UNL1       -0.1282
      8 C         142.4128  141.5093  163.4184 C.ar    1  UNL1        0.1668
      9 C         142.4886  140.7332  164.6997 C.ar    1  UNL1        0.0361
     10 C         142.5765  139.2361  164.6658 C.ar    1  UNL1        0.0031
     11 C         142.6523  138.4600  165.9472 C.ar    1  UNL1        0.0003
     12 C         142.6402  139.1811  167.2625 C.ar    1  UNL1        0.0047
     13 C         142.5523  140.6781  167.2965 C.ar    1  UNL1        0.0537
     14 C         142.4765  141.4542  166.0150 C.ar    1  UNL1        0.0077
     15 C         142.5402  141.3991  168.6118 C.ar    1  UNL1        0.2299
     16 N         141.8019  140.9707  169.8452 N.ar    1  UNL1       -0.2065
     17 C         142.0697  141.9818  170.9203 C.ar    1  UNL1        0.1427
     18 C         142.9735  143.0350  170.3514 C.ar    1  UNL1        0.2021
     19 O         143.2644  142.6749  168.9246 O.2     1  UNL1       -0.4314
     20 C         143.7921  140.4598  158.6773 C.3     1  UNL1        0.0294
     21 C         142.9212  139.4166  159.3123 C.3     1  UNL1        0.0730
     22 N         141.4283  139.5520  159.2588 N.3     1  UNL1       -0.2726
     23 C         140.5954  139.6444  158.0148 C.3     1  UNL1        0.0721
     24 C         139.1585  139.7683  158.4272 C.3     1  UNL1        0.0190
     25 C         139.1034  139.7523  159.9261 C.3     1  UNL1        0.0201
     26 C         137.6129  139.8853  160.0297 C.3     1  UNL1        0.0061
     27 C         138.4459  139.7928  161.2737 C.3     1  UNL1        0.0237
     28 C         140.5062  139.6186  160.4401 C.3     1  UNL1        0.0724
     29 C         138.5471  139.7627  162.7700 C.ar    1  UNL1       -0.0225
     30 C         138.2956  141.0103  163.5639 C.ar    1  UNL1       -0.0043
     31 C         138.3969  140.9803  165.0602 C.ar    1  UNL1        0.0035
     32 C         138.7497  139.7027  165.7625 C.ar    1  UNL1        0.0714
     33 C         139.0012  138.4551  164.9685 C.ar    1  UNL1        0.0035
     34 C         138.8999  138.4851  163.4723 C.ar    1  UNL1       -0.0043
     35 C         138.8510  139.6726  167.2588 C.3     1  UNL1        0.4186
     36 F         138.9523  139.6426  168.7551 F       1  UNL1       -0.1659
     37 F         138.2507  138.2980  167.2718 F       1  UNL1       -0.1659
     38 F         139.4512  141.0472  167.2457 F       1  UNL1       -0.1659
@<TRIPOS>BOND
     1     3     4    1
     2     4     5   ar
     3     5     2    1
     4     2     1    1
     5     1    20    1
     6    20    21    1
     7    21    22    1
     8    22    23    1
     9    23    24    1
    10    25    24    1
    11    25    26    1
    12    26    27    1
    13    27    29    1
    14    29    30   ar
    15    30    31   ar
    16    31    32   ar
    17    32    35    1
    18    35    36    1
    19    35    37    1
    20    35    38    1
    21    32    33   ar
    22    33    34   ar
    23    25    28    1
    24     5     6   ar
    25     6     7   ar
    26     7     8   ar
    27     8     9    1
    28     9    10   ar
    29    10    11   ar
    30    11    12   ar
    31    12    13   ar
    32    13    15    1
    33    15    16   ar
    34    16    17   ar
    35    17    18   ar
    36    18    19   ar
    37    13    14   ar
    38     8     4   ar
    39    14     9   ar
    40    28    22    1
    41    19    15   ar
    42    27    25    1
    43    34    29   ar
@<TRIPOS>MOLECULE
*****
 38 43 0 0 0
SMALL
GASTEIGER

@<TRIPOS>ATOM
      1 C         140.0850  144.3528  159.2441 C.3     1  UNL1        0.0666
      2 S         141.0875  144.7719  160.2782 S.3     1  UNL1       -0.0756
      3 C         140.6609  143.0559  163.0210 C.3     1  UNL1        0.1340
      4 N         141.8479  142.9771  162.1073 N.ar    1  UNL1       -0.2884
      5 C         142.0439  143.7659  160.8466 C.ar    1  UNL1        0.1932
      6 N         143.3644  143.3720  160.2539 N.ar    1  UNL1       -0.1221
      7 N         143.9845  142.3398  161.1484 N.ar    1  UNL1       -0.1282
      8 C         143.0473  142.0957  162.2938 C.ar    1  UNL1        0.1668
      9 C         143.2702  141.1383  163.4269 C.ar    1  UNL1        0.0361
     10 C         144.3864  140.1388  163.3556 C.ar    1  UNL1        0.0031
     11 C         144.6093  139.1814  164.4886 C.ar    1  UNL1        0.0003
     12 C         143.7160  139.2237  165.6929 C.ar    1  UNL1        0.0047
     13 C         142.5999  140.2232  165.7642 C.ar    1  UNL1        0.0537
     14 C         142.3770  141.1806  164.6311 C.ar    1  UNL1        0.0077
     15 C         141.7067  140.2654  166.9685 C.ar    1  UNL1        0.2299
     16 N         141.9815  139.6174  168.2931 N.ar    1  UNL1       -0.2065
     17 C         140.8265  139.9145  169.2030 C.ar    1  UNL1        0.1427
     18 C         139.8379  140.7460  168.4407 C.ar    1  UNL1        0.2021
     19 O         140.3819  140.9629  167.0597 O.2     1  UNL1       -0.4314
     20 C         139.6497  142.9199  159.1590 C.3     1  UNL1        0.0294
     21 C         140.2970  141.9968  158.1696 C.3     1  UNL1        0.0730
     22 N         141.2151  140.9106  158.6466 N.3     1  UNL1       -0.2726
     23 C         142.4308  140.4050  157.9279 C.3     1  UNL1        0.0721
     24 C         143.0456  139.3213  158.7631 C.3     1  UNL1        0.0190
     25 C         142.2099  139.1572  159.9979 C.3     1  UNL1        0.0201
     26 C         143.0356  138.0599  160.6013 C.3     1  UNL1        0.0061
     27 C         141.8199  138.5655  161.3200 C.3     1  UNL1        0.0237
     28 C         141.0786  140.1395  159.9259 C.3     1  UNL1        0.0724
     29 C         140.8929  138.5158  162.4982 C.ar    1  UNL1       -0.0225
     30 C         139.7561  139.4892  162.5996 C.ar    1  UNL1       -0.0043
     31 C         138.8290  139.4396  163.7777 C.ar    1  UNL1        0.0035
     32 C         139.0388  138.4165  164.8545 C.ar    1  UNL1        0.0714
     33 C         140.1755  137.4431  164.7530 C.ar    1  UNL1        0.0035
     34 C         141.1026  137.4928  163.5749 C.ar    1  UNL1       -0.0043
     35 C         138.1117  138.3669  166.0326 C.3     1  UNL1        0.4186
     36 F         137.1846  138.3171  167.2109 F       1  UNL1       -0.1659
     37 F         137.8431  139.8350  165.8831 F       1  UNL1       -0.1659
     38 F         138.3804  136.8987  166.1821 F       1  UNL1       -0.1659
@<TRIPOS>BOND
     1     3     4    1
     2     4     5   ar
     3     5     2    1
     4     2     1    1
     5     1    20    1
     6    20    21    1
     7    21    22    1
     8    22    23    1
     9    23    24    1
    10    25    24    1
    11    25    26    1
    12    26    27    1
    13    27    29    1
    14    29    30   ar
    15    30    31   ar
    16    31    32   ar
    17    32    35    1
    18    35    36    1
    19    35    37    1
    20    35    38    1
    21    32    33   ar
    22    33    34   ar
    23    25    28    1
    24     5     6   ar
    25     6     7   ar
    26     7     8   ar
    27     8     9    1
    28     9    10   ar
    29    10    11   ar
    30    11    12   ar
    31    12    13   ar
    32    13    15    1
    33    15    16   ar
    34    16    17   ar
    35    17    18   ar
    36    18    19   ar
    37    13    14   ar
    38     8     4   ar
    39    14     9   ar
    40    28    22    1
    41    19    15   ar
    42    27    25    1
    43    34    29   ar
@<TRIPOS>MOLECULE
*****
 38 43 0 0 0
SMALL
GASTEIGER

@<TRIPOS>ATOM
      1 C         140.9090  145.4920  160.0194 C.3     1  UNL1        0.0666
      2 S         139.9294  145.9246  161.0698 S.3     1  UNL1       -0.0756
      3 C         141.9653  144.8982  163.4046 C.3     1  UNL1        0.1340
      4 N         140.5180  144.5273  163.2712 N.ar    1  UNL1       -0.2884
      5 C         139.5822  144.9991  162.1980 C.ar    1  UNL1        0.1932
      6 N         138.2382  144.3830  162.4512 N.ar    1  UNL1       -0.1221
      7 N         138.3433  143.5304  163.6808 N.ar    1  UNL1       -0.1282
      8 C         139.7523  143.6196  164.1877 C.ar    1  UNL1        0.1668
      9 C         140.2995  142.9233  165.3983 C.ar    1  UNL1        0.0361
     10 C         139.8777  143.3606  166.7698 C.ar    1  UNL1        0.0031
     11 C         140.4249  142.6643  167.9804 C.ar    1  UNL1        0.0003
     12 C         141.3940  141.5306  167.8196 C.ar    1  UNL1        0.0047
     13 C         141.8158  141.0933  166.4482 C.ar    1  UNL1        0.0537
     14 C         141.2685  141.7897  165.2375 C.ar    1  UNL1        0.0077
     15 C         142.7848  139.9596  166.2874 C.ar    1  UNL1        0.2299
     16 N         143.7686  139.7928  165.1674 N.ar    1  UNL1       -0.2065
     17 C         144.5320  138.5239  165.4062 C.ar    1  UNL1        0.1427
     18 C         144.0201  137.9065  166.6737 C.ar    1  UNL1        0.2021
     19 O         142.9402  138.7938  167.2184 O.2     1  UNL1       -0.4314
     20 C         141.0927  144.0337  159.7203 C.3     1  UNL1        0.0294
     21 C         142.4289  143.3866  159.9346 C.3     1  UNL1        0.0730
     22 N         142.5722  141.8995  159.8000 N.3     1  UNL1       -0.2726
     23 C         143.3381  141.1809  158.7291 C.3     1  UNL1        0.0721
     24 C         143.2141  139.7073  158.9800 C.3     1  UNL1        0.0190
     25 C         142.3715  139.5151  160.2061 C.3     1  UNL1        0.0201
     26 C         142.4260  138.0161  160.2004 C.3     1  UNL1        0.0061
     27 C         141.6601  138.7347  161.2714 C.3     1  UNL1        0.0237
     28 C         141.9748  140.8700  160.7129 C.3     1  UNL1        0.0724
     29 C         140.8072  138.6991  162.5048 C.ar    1  UNL1       -0.0225
     30 C         139.5740  139.5489  162.5887 C.ar    1  UNL1       -0.0043
     31 C         138.7211  139.5132  163.8221 C.ar    1  UNL1        0.0035
     32 C         139.1014  138.6278  164.9716 C.ar    1  UNL1        0.0714
     33 C         140.3346  137.7780  164.8877 C.ar    1  UNL1        0.0035
     34 C         141.1875  137.8136  163.6543 C.ar    1  UNL1       -0.0043
     35 C         138.2485  138.5922  166.2049 C.3     1  UNL1        0.4186
     36 F         137.3956  138.5566  167.4384 F       1  UNL1       -0.1659
     37 F         138.1181  137.1038  166.0718 F       1  UNL1       -0.1659
     38 F         138.3789  140.0805  166.3381 F       1  UNL1       -0.1659
@<TRIPOS>BOND
     1     3     4    1
     2     4     5   ar
     3     5     2    1
     4     2     1    1
     5     1    20    1
     6    20    21    1
     7    21    22    1
     8    22    23    1
     9    23    24    1
    10    25    24    1
    11    25    26    1
    12    26    27    1
    13    27    29    1
    14    29    30   ar
    15    30    31   ar
    16    31    32   ar
    17    32    35    1
    18    35    36    1
    19    35    37    1
    20    35    38    1
    21    32    33   ar
    22    33    34   ar
    23    25    28    1
    24     5     6   ar
    25     6     7   ar
    26     7     8   ar
    27     8     9    1
    28     9    10   ar
    29    10    11   ar
    30    11    12   ar
    31    12    13   ar
    32    13    15    1
    33    15    16   ar
    34    16    17   ar
    35    17    18   ar
    36    18    19   ar
    37    13    14   ar
    38     8     4   ar
    39    14     9   ar
    40    28    22    1
    41    19    15   ar
    42    27    25    1
    43    34    29   ar
@<TRIPOS>MOLECULE
*****
 38 43 0 0 0
SMALL
GASTEIGER

@<TRIPOS>ATOM
      1 C         139.6909  143.1010  157.5402 C.3     1  UNL1        0.0666
      2 S         140.5596  144.1996  158.0771 S.3     1  UNL1       -0.0756
      3 C         140.3903  144.3023  161.3345 C.3     1  UNL1        0.1340
      4 N         141.5959  143.9249  160.5257 N.ar    1  UNL1       -0.2884
      5 C         141.6737  143.8777  159.0285 C.ar    1  UNL1        0.1932
      6 N         143.0612  143.4521  158.6496 N.ar    1  UNL1       -0.1221
      7 N         143.8410  143.2362  159.9127 N.ar    1  UNL1       -0.1282
      8 C         142.9354  143.5284  161.0723 C.ar    1  UNL1        0.1668
      9 C         143.3045  143.4397  162.5234 C.ar    1  UNL1        0.0361
     10 C         143.7803  144.6612  163.2523 C.ar    1  UNL1        0.0031
     11 C         144.1494  144.5725  164.7035 C.ar    1  UNL1        0.0003
     12 C         144.0426  143.2621  165.4257 C.ar    1  UNL1        0.0047
     13 C         143.5667  142.0406  164.6969 C.ar    1  UNL1        0.0537
     14 C         143.1976  142.1294  163.2456 C.ar    1  UNL1        0.0077
     15 C         143.4599  140.7303  165.4192 C.ar    1  UNL1        0.2299
     16 N         142.6282  140.4607  166.6380 N.ar    1  UNL1       -0.2065
     17 C         142.8203  139.0234  167.0216 C.ar    1  UNL1        0.1427
     18 C         143.7706  138.4046  166.0399 C.ar    1  UNL1        0.2021
     19 O         144.1659  139.4596  165.0495 O.2     1  UNL1       -0.4314
     20 C         139.5502  141.8162  158.3015 C.3     1  UNL1        0.0294
     21 C         140.3446  140.6112  157.8928 C.3     1  UNL1        0.0730
     22 N         141.4859  140.1409  158.7450 N.3     1  UNL1       -0.2726
     23 C         142.9206  140.0389  158.3193 C.3     1  UNL1        0.0721
     24 C         143.7142  139.5250  159.4838 C.3     1  UNL1        0.0190
     25 C         142.7700  139.3094  160.6292 C.3     1  UNL1        0.0201
     26 C         143.8063  138.8191  161.5965 C.3     1  UNL1        0.0061
     27 C         142.3717  138.9211  162.0223 C.3     1  UNL1        0.0237
     28 C         141.3928  139.6901  160.1727 C.3     1  UNL1        0.0724
     29 C         141.3134  138.7559  163.0724 C.ar    1  UNL1       -0.0225
     30 C         140.4633  139.9257  163.4711 C.ar    1  UNL1       -0.0043
     31 C         139.4050  139.7605  164.5212 C.ar    1  UNL1        0.0035
     32 C         139.1967  138.4254  165.1725 C.ar    1  UNL1        0.0714
     33 C         140.0468  137.2556  164.7737 C.ar    1  UNL1        0.0035
     34 C         141.1051  137.4208  163.7237 C.ar    1  UNL1       -0.0043
     35 C         138.1384  138.2601  166.2225 C.3     1  UNL1        0.4186
     36 F         137.0801  138.0949  167.2727 F       1  UNL1       -0.1659
     37 F         138.1230  136.7810  165.9742 F       1  UNL1       -0.1659
     38 F         138.1539  139.7393  166.4709 F       1  UNL1       -0.1659
@<TRIPOS>BOND
     1     3     4    1
     2     4     5   ar
     3     5     2    1
     4     2     1    1
     5     1    20    1
     6    20    21    1
     7    21    22    1
     8    22    23    1
     9    23    24    1
    10    25    24    1
    11    25    26    1
    12    26    27    1
    13    27    29    1
    14    29    30   ar
    15    30    31   ar
    16    31    32   ar
    17    32    35    1
    18    35    36    1
    19    35    37    1
    20    35    38    1
    21    32    33   ar
    22    33    34   ar
    23    25    28    1
    24     5     6   ar
    25     6     7   ar
    26     7     8   ar
    27     8     9    1
    28     9    10   ar
    29    10    11   ar
    30    11    12   ar
    31    12    13   ar
    32    13    15    1
    33    15    16   ar
    34    16    17   ar
    35    17    18   ar
    36    18    19   ar
    37    13    14   ar
    38     8     4   ar
    39    14     9   ar
    40    28    22    1
    41    19    15   ar
    42    27    25    1
    43    34    29   ar
