@<TRIPOS>MOLECULE
*****
 29 32 0 0 0
SMALL
GASTEIGER

@<TRIPOS>ATOM
      1 N         139.5995  141.0287  166.5076 N.ar    1  UNL1       -0.2465
      2 C         139.6125  142.4622  166.0662 C.ar    1  UNL1        0.1025
      3 C         138.7866  142.5706  164.8188 C.ar    1  UNL1        0.1051
      4 C         138.2633  141.2040  164.4891 C.ar    1  UNL1        0.1578
      5 N         138.7657  140.2511  165.5328 N.ar    1  UNL1       -0.1539
      6 C         141.7578  140.1335  167.6436 C.3     1  UNL1        0.1187
      7 C         142.4561  139.5755  168.8482 C.3     1  UNL1        0.0492
      8 C         141.6943  139.3546  170.1213 C.3     1  UNL1        0.1434
      9 O         140.2343  139.6917  170.1899 O.3     1  UNL1       -0.3516
     10 C         139.5361  140.2497  168.9853 C.3     1  UNL1        0.1674
     11 C         140.2978  140.4706  167.7122 C.3     1  UNL1        0.1488
     12 N         143.2813  140.5753  165.0973 N.1     1  UNL1       -0.1958
     13 C         142.5196  140.3544  166.3704 C.1     1  UNL1        0.0742
     14 C         138.5293  143.8253  164.0380 C.2     1  UNL1        0.2470
     15 N         139.2747  145.0832  164.3728 N.am    1  UNL1       -0.3252
     16 O         137.5266  143.8221  162.9224 O.2     1  UNL1       -0.2702
     17 H         139.9328  145.0853  165.1050 H       1  UNL1        0.1453
     18 H         139.1058  145.9067  163.8603 H       1  UNL1        0.1453
     19 N         137.3908  140.8523  163.3208 N.pl3   1  UNL1       -0.2964
     20 H         136.4208  141.0152  163.3641 H       1  UNL1        0.1537
     21 C         137.9961  140.2523  162.0865 C.ar    1  UNL1        0.0494
     22 C         138.1086  141.0688  160.8332 C.ar    1  UNL1        0.0143
     23 C         138.7139  140.4688  159.5990 C.ar    1  UNL1       -0.0030
     24 C         139.2067  139.0522  159.6179 C.ar    1  UNL1       -0.0224
     25 C         139.0942  138.2357  160.8710 C.ar    1  UNL1       -0.0030
     26 C         138.4889  138.8357  162.1054 C.ar    1  UNL1        0.0143
     27 C         139.8121  138.4521  158.3835 C.3     1  UNL1        0.0224
     28 C         141.0137  137.9551  157.6358 C.3     1  UNL1        0.0047
     29 C         139.6590  137.9098  156.9934 C.3     1  UNL1        0.0047
@<TRIPOS>BOND
     1    12    13    3
     2     6    13    1
     3     6     7    1
     4     7     8    1
     5     8     9    1
     6     9    10    1
     7    10    11    1
     8    11     1    1
     9     1     2   ar
    10     2     3   ar
    11     3    14    1
    12    14    15   am
    13    14    16    2
    14     3     4   ar
    15     4    19    1
    16    19    21    1
    17    21    22   ar
    18    22    23   ar
    19    23    24   ar
    20    24    27    1
    21    27    28    1
    22    28    29    1
    23    24    25   ar
    24    25    26   ar
    25     4     5   ar
    26    11     6    1
    27     5     1   ar
    28    26    21   ar
    29    29    27    1
    30    15    17    1
    31    15    18    1
    32    19    20    1
@<TRIPOS>MOLECULE
*****
 29 32 0 0 0
SMALL
GASTEIGER

@<TRIPOS>ATOM
      1 N         142.3137  141.2793  166.6251 N.ar    1  UNL1       -0.2465
      2 C         143.2610  140.3677  165.9029 C.ar    1  UNL1        0.1025
      3 C         143.9317  141.1599  164.8200 C.ar    1  UNL1        0.1051
      4 C         143.3989  142.5612  164.8730 C.ar    1  UNL1        0.1578
      5 N         142.3989  142.6349  165.9886 N.ar    1  UNL1       -0.1539
      6 C         141.8325  141.2752  169.1783 C.3     1  UNL1        0.1187
      7 C         140.9542  140.8975  170.3340 C.3     1  UNL1        0.0492
      8 C         139.6786  140.1461  170.0924 C.3     1  UNL1        0.1434
      9 O         139.2814  139.7725  168.6951 O.3     1  UNL1       -0.3516
     10 C         140.1598  140.1502  167.5393 C.3     1  UNL1        0.1674
     11 C         141.4353  140.9016  167.7809 C.3     1  UNL1        0.1488
     12 N         144.3837  142.7780  169.6614 N.1     1  UNL1       -0.1958
     13 C         143.1081  142.0266  169.4198 C.1     1  UNL1        0.0742
     14 C         144.9555  140.6419  163.8538 C.2     1  UNL1        0.2470
     15 N         144.9286  139.2025  163.4326 N.am    1  UNL1       -0.3252
     16 O         146.0062  141.5633  163.3088 O.2     1  UNL1       -0.2702
     17 H         144.2390  138.5978  163.7903 H       1  UNL1        0.1453
     18 H         145.6005  138.8626  162.7984 H       1  UNL1        0.1453
     19 N         143.7963  143.6903  163.9692 N.pl3   1  UNL1       -0.2964
     20 H         144.5598  144.2650  164.2059 H       1  UNL1        0.1537
     21 C         143.0305  143.9439  162.7046 C.ar    1  UNL1        0.0494
     22 C         143.4652  143.2984  161.4222 C.ar    1  UNL1        0.0143
     23 C         142.6993  143.5520  160.1578 C.ar    1  UNL1       -0.0030
     24 C         141.4987  144.4510  160.1756 C.ar    1  UNL1       -0.0224
     25 C         141.0640  145.0965  161.4578 C.ar    1  UNL1       -0.0030
     26 C         141.8299  144.8429  162.7224 C.ar    1  UNL1        0.0143
     27 C         140.7328  144.7046  158.9109 C.3     1  UNL1        0.0224
     28 C         140.3052  145.6362  157.8158 C.3     1  UNL1        0.0047
     29 C         139.8337  144.2122  157.8158 C.3     1  UNL1        0.0047
@<TRIPOS>BOND
     1    12    13    3
     2     6    13    1
     3     6     7    1
     4     7     8    1
     5     8     9    1
     6     9    10    1
     7    10    11    1
     8    11     1    1
     9     1     2   ar
    10     2     3   ar
    11     3    14    1
    12    14    15   am
    13    14    16    2
    14     3     4   ar
    15     4    19    1
    16    19    21    1
    17    21    22   ar
    18    22    23   ar
    19    23    24   ar
    20    24    27    1
    21    27    28    1
    22    28    29    1
    23    24    25   ar
    24    25    26   ar
    25     4     5   ar
    26    11     6    1
    27     5     1   ar
    28    26    21   ar
    29    29    27    1
    30    15    17    1
    31    15    18    1
    32    19    20    1
@<TRIPOS>MOLECULE
*****
 29 32 0 0 0
SMALL
GASTEIGER

@<TRIPOS>ATOM
      1 N         140.7889  140.7562  167.1553 N.ar    1  UNL1       -0.2465
      2 C         141.0886  139.4142  166.5559 C.ar    1  UNL1        0.1025
      3 C         140.0356  139.1196  165.5290 C.ar    1  UNL1        0.1051
      4 C         139.0851  140.2796  165.4938 C.ar    1  UNL1        0.1578
      5 N         139.5507  141.2910  166.4989 N.ar    1  UNL1       -0.1539
      6 C         141.0930  141.4527  169.6397 C.3     1  UNL1        0.1187
      7 C         141.8914  142.1393  170.7079 C.3     1  UNL1        0.0492
      8 C         143.1840  142.8160  170.3600 C.3     1  UNL1        0.1434
      9 O         143.6784  142.8061  168.9439 O.3     1  UNL1       -0.3516
     10 C         142.8800  142.1195  167.8757 C.3     1  UNL1        0.1674
     11 C         141.5873  141.4428  168.2236 C.3     1  UNL1        0.1488
     12 N         138.5077  140.0993  170.3356 N.1     1  UNL1       -0.1958
     13 C         139.8003  140.7760  169.9877 C.1     1  UNL1        0.0742
     14 C         139.9484  137.8824  164.6854 C.2     1  UNL1        0.2470
     15 N         141.1941  137.1233  164.3362 N.am    1  UNL1       -0.3252
     16 O         138.6154  137.4041  164.1911 O.2     1  UNL1       -0.2702
     17 H         142.0690  137.4372  164.6607 H       1  UNL1        0.1453
     18 H         141.1369  136.3113  163.7826 H       1  UNL1        0.1453
     19 N         137.8806  140.4059  164.6089 N.pl3   1  UNL1       -0.2964
     20 H         136.9930  140.1446  164.9453 H       1  UNL1        0.1537
     21 C         138.0284  140.9303  163.2113 C.ar    1  UNL1        0.0494
     22 C         138.2087  142.4009  162.9772 C.ar    1  UNL1        0.0143
     23 C         138.3565  142.9252  161.5796 C.ar    1  UNL1       -0.0030
     24 C         138.3240  141.9790  160.4162 C.ar    1  UNL1       -0.0224
     25 C         138.1437  140.5084  160.6503 C.ar    1  UNL1       -0.0030
     26 C         137.9959  139.9840  162.0479 C.ar    1  UNL1        0.0143
     27 C         138.4718  142.5033  159.0186 C.3     1  UNL1        0.0224
     28 C         139.2219  143.3237  158.0114 C.3     1  UNL1        0.0047
     29 C         137.9776  142.5911  157.6051 C.3     1  UNL1        0.0047
@<TRIPOS>BOND
     1    12    13    3
     2     6    13    1
     3     6     7    1
     4     7     8    1
     5     8     9    1
     6     9    10    1
     7    10    11    1
     8    11     1    1
     9     1     2   ar
    10     2     3   ar
    11     3    14    1
    12    14    15   am
    13    14    16    2
    14     3     4   ar
    15     4    19    1
    16    19    21    1
    17    21    22   ar
    18    22    23   ar
    19    23    24   ar
    20    24    27    1
    21    27    28    1
    22    28    29    1
    23    24    25   ar
    24    25    26   ar
    25     4     5   ar
    26    11     6    1
    27     5     1   ar
    28    26    21   ar
    29    29    27    1
    30    15    17    1
    31    15    18    1
    32    19    20    1
@<TRIPOS>MOLECULE
*****
 29 32 0 0 0
SMALL
GASTEIGER

@<TRIPOS>ATOM
      1 N         140.1554  142.5608  166.6955 N.ar    1  UNL1       -0.2465
      2 C         139.5604  141.3194  166.0999 C.ar    1  UNL1        0.1025
      3 C         138.7968  141.7149  164.8710 C.ar    1  UNL1        0.1051
      4 C         138.9198  143.2009  164.7070 C.ar    1  UNL1        0.1578
      5 N         139.7594  143.7237  165.8346 N.ar    1  UNL1       -0.1539
      6 C         142.4477  142.2456  167.8771 C.3     1  UNL1        0.1187
      7 C         143.2905  142.3126  169.1161 C.3     1  UNL1        0.0492
      8 C         142.6841  142.7618  170.4124 C.3     1  UNL1        0.1434
      9 O         141.2348  143.1440  170.4698 O.3     1  UNL1       -0.3516
     10 C         140.3919  143.0770  169.2308 C.3     1  UNL1        0.1674
     11 C         140.9983  142.6278  167.9345 C.3     1  UNL1        0.1488
     12 N         143.6606  141.3473  165.2845 N.1     1  UNL1       -0.1958
     13 C         143.0541  141.7965  166.5808 C.1     1  UNL1        0.0742
     14 C         138.0425  140.7873  163.9650 C.2     1  UNL1        0.2470
     15 N         138.3824  139.3266  163.9358 N.am    1  UNL1       -0.3252
     16 O         136.9484  141.3204  163.0883 O.2     1  UNL1       -0.2702
     17 H         139.1005  138.9767  164.5112 H       1  UNL1        0.1453
     18 H         137.8874  138.7178  163.3411 H       1  UNL1        0.1453
     19 N         138.3101  144.0201  163.6083 N.pl3   1  UNL1       -0.2964
     20 H         137.4023  144.3863  163.7130 H       1  UNL1        0.1537
     21 C         139.0837  144.2814  162.3500 C.ar    1  UNL1        0.0494
     22 C         139.3937  143.1525  161.4121 C.ar    1  UNL1        0.0143
     23 C         140.1673  143.4138  160.1538 C.ar    1  UNL1       -0.0030
     24 C         140.6308  144.8039  159.8334 C.ar    1  UNL1       -0.0224
     25 C         140.3208  145.9327  160.7713 C.ar    1  UNL1       -0.0030
     26 C         139.5473  145.6715  162.0296 C.ar    1  UNL1        0.0143
     27 C         141.4044  145.0653  158.5751 C.3     1  UNL1        0.0224
     28 C         141.8447  146.0055  157.4924 C.3     1  UNL1        0.0047
     29 C         142.3041  144.5776  157.4784 C.3     1  UNL1        0.0047
@<TRIPOS>BOND
     1    12    13    3
     2     6    13    1
     3     6     7    1
     4     7     8    1
     5     8     9    1
     6     9    10    1
     7    10    11    1
     8    11     1    1
     9     1     2   ar
    10     2     3   ar
    11     3    14    1
    12    14    15   am
    13    14    16    2
    14     3     4   ar
    15     4    19    1
    16    19    21    1
    17    21    22   ar
    18    22    23   ar
    19    23    24   ar
    20    24    27    1
    21    27    28    1
    22    28    29    1
    23    24    25   ar
    24    25    26   ar
    25     4     5   ar
    26    11     6    1
    27     5     1   ar
    28    26    21   ar
    29    29    27    1
    30    15    17    1
    31    15    18    1
    32    19    20    1
@<TRIPOS>MOLECULE
*****
 29 32 0 0 0
SMALL
GASTEIGER

@<TRIPOS>ATOM
      1 N         140.6073  141.8811  166.5862 N.ar    1  UNL1       -0.2465
      2 C         139.3761  141.4386  165.8524 C.ar    1  UNL1        0.1025
      3 C         138.9871  142.5296  164.8994 C.ar    1  UNL1        0.1051
      4 C         139.9780  143.6465  165.0441 C.ar    1  UNL1        0.1578
      5 N         140.9792  143.2457  166.0866 N.ar    1  UNL1       -0.1539
      6 C         141.3868  141.5977  169.0483 C.3     1  UNL1        0.1187
      7 C         142.1177  140.8133  170.0973 C.3     1  UNL1        0.0492
      8 C         142.8000  139.5280  169.7334 C.3     1  UNL1        0.1434
      9 O         142.7514  139.0271  168.3204 O.3     1  UNL1       -0.3516
     10 C         142.0205  139.8114  167.2713 C.3     1  UNL1        0.1674
     11 C         141.3382  141.0967  167.6353 C.3     1  UNL1        0.1488
     12 N         140.0222  144.1682  169.7762 N.1     1  UNL1       -0.1958
     13 C         140.7045  142.8829  169.4123 C.1     1  UNL1        0.0742
     14 C         137.8134  142.5077  163.9656 C.2     1  UNL1        0.2470
     15 N         137.1232  141.2118  163.6589 N.am    1  UNL1       -0.3252
     16 O         137.3300  143.7817  163.3385 O.2     1  UNL1       -0.2702
     17 H         137.4404  140.3756  164.0704 H       1  UNL1        0.1453
     18 H         136.3528  141.1975  163.0460 H       1  UNL1        0.1453
     19 N         139.9691  144.9375  164.2805 N.pl3   1  UNL1       -0.2964
     20 H         139.6652  145.7658  164.7173 H       1  UNL1        0.1537
     21 C         140.4232  144.9666  162.8512 C.ar    1  UNL1        0.0494
     22 C         139.7304  145.8563  161.8620 C.ar    1  UNL1        0.0143
     23 C         140.1846  145.8852  160.4328 C.ar    1  UNL1       -0.0030
     24 C         141.3316  145.0246  159.9927 C.ar    1  UNL1       -0.0224
     25 C         142.0243  144.1349  160.9818 C.ar    1  UNL1       -0.0030
     26 C         141.5702  144.1059  162.4111 C.ar    1  UNL1        0.0143
     27 C         141.7858  145.0536  158.5633 C.3     1  UNL1        0.0224
     28 C         142.2941  144.3379  157.3470 C.3     1  UNL1        0.0047
     29 C         142.0642  145.8195  157.3040 C.3     1  UNL1        0.0047
@<TRIPOS>BOND
     1    12    13    3
     2     6    13    1
     3     6     7    1
     4     7     8    1
     5     8     9    1
     6     9    10    1
     7    10    11    1
     8    11     1    1
     9     1     2   ar
    10     2     3   ar
    11     3    14    1
    12    14    15   am
    13    14    16    2
    14     3     4   ar
    15     4    19    1
    16    19    21    1
    17    21    22   ar
    18    22    23   ar
    19    23    24   ar
    20    24    27    1
    21    27    28    1
    22    28    29    1
    23    24    25   ar
    24    25    26   ar
    25     4     5   ar
    26    11     6    1
    27     5     1   ar
    28    26    21   ar
    29    29    27    1
    30    15    17    1
    31    15    18    1
    32    19    20    1
@<TRIPOS>MOLECULE
*****
 29 32 0 0 0
SMALL
GASTEIGER

@<TRIPOS>ATOM
      1 N         140.3477  141.7250  166.4976 N.ar    1  UNL1       -0.2465
      2 C         139.1313  141.3759  165.6924 C.ar    1  UNL1        0.1025
      3 C         138.8419  142.5220  164.7690 C.ar    1  UNL1        0.1051
      4 C         139.8795  143.5796  165.0036 C.ar    1  UNL1        0.1578
      5 N         140.8101  143.0870  166.0719 N.ar    1  UNL1       -0.1539
      6 C         142.2115  140.0612  167.2102 C.3     1  UNL1        0.1187
      7 C         142.8529  139.1997  168.2573 C.3     1  UNL1        0.0492
      8 C         142.2719  139.1406  169.6389 C.3     1  UNL1        0.1434
      9 O         141.0495  139.9429  169.9735 O.3     1  UNL1       -0.3516
     10 C         140.4081  140.8044  168.9264 C.3     1  UNL1        0.1674
     11 C         140.9891  140.8635  167.5447 C.3     1  UNL1        0.1488
     12 N         143.3736  140.1794  164.4469 N.1     1  UNL1       -0.1958
     13 C         142.7926  140.1203  165.8286 C.1     1  UNL1        0.0742
     14 C         137.7131  142.5974  163.7840 C.2     1  UNL1        0.2470
     15 N         137.0018  141.3463  163.3613 N.am    1  UNL1       -0.3252
     16 O         137.2957  143.9239  163.2218 O.2     1  UNL1       -0.2702
     17 H         137.2758  140.4756  163.7303 H       1  UNL1        0.1453
     18 H         136.2609  141.3958  162.7148 H       1  UNL1        0.1453
     19 N         139.9705  144.8982  164.2943 N.pl3   1  UNL1       -0.2964
     20 H         139.7422  145.7296  164.7696 H       1  UNL1        0.1537
     21 C         140.4093  144.9500  162.8609 C.ar    1  UNL1        0.0494
     22 C         141.5183  144.0600  162.3833 C.ar    1  UNL1        0.0143
     23 C         141.9570  144.1119  160.9499 C.ar    1  UNL1       -0.0030
     24 C         141.2867  145.0538  159.9940 C.ar    1  UNL1       -0.0224
     25 C         140.1778  145.9437  160.4716 C.ar    1  UNL1       -0.0030
     26 C         139.7390  145.8918  161.9050 C.ar    1  UNL1        0.0143
     27 C         141.7255  145.1056  158.5605 C.3     1  UNL1        0.0224
     28 C         142.3838  144.4567  157.3791 C.3     1  UNL1        0.0047
     29 C         141.8270  145.8444  157.2590 C.3     1  UNL1        0.0047
@<TRIPOS>BOND
     1    12    13    3
     2     6    13    1
     3     6     7    1
     4     7     8    1
     5     8     9    1
     6     9    10    1
     7    10    11    1
     8    11     1    1
     9     1     2   ar
    10     2     3   ar
    11     3    14    1
    12    14    15   am
    13    14    16    2
    14     3     4   ar
    15     4    19    1
    16    19    21    1
    17    21    22   ar
    18    22    23   ar
    19    23    24   ar
    20    24    27    1
    21    27    28    1
    22    28    29    1
    23    24    25   ar
    24    25    26   ar
    25     4     5   ar
    26    11     6    1
    27     5     1   ar
    28    26    21   ar
    29    29    27    1
    30    15    17    1
    31    15    18    1
    32    19    20    1
@<TRIPOS>MOLECULE
*****
 29 32 0 0 0
SMALL
GASTEIGER

@<TRIPOS>ATOM
      1 N         140.4203  143.1158  165.7908 N.ar    1  UNL1       -0.2465
      2 C         139.2891  143.6848  164.9867 C.ar    1  UNL1        0.1025
      3 C         139.8756  144.4363  163.8286 C.ar    1  UNL1        0.1051
      4 C         141.3694  144.3317  163.9169 C.ar    1  UNL1        0.1578
      5 N         141.7060  143.5156  165.1296 N.ar    1  UNL1       -0.1539
      6 C         139.9265  140.8393  166.9413 C.3     1  UNL1        0.1187
      7 C         139.7951  140.0152  168.1877 C.3     1  UNL1        0.0492
      8 C         140.0261  140.6435  169.5301 C.3     1  UNL1        0.1434
      9 O         140.3885  142.0959  169.6260 O.3     1  UNL1       -0.3516
     10 C         140.5198  142.9200  168.3796 C.3     1  UNL1        0.1674
     11 C         140.2888  142.2916  167.0372 C.3     1  UNL1        0.1488
     12 N         139.4645  139.5826  164.2566 N.1     1  UNL1       -0.1958
     13 C         139.6955  140.2110  165.5990 C.1     1  UNL1        0.0742
     14 C         139.1039  145.1645  162.7682 C.2     1  UNL1        0.2470
     15 N         137.6948  144.7580  162.4536 N.am    1  UNL1       -0.3252
     16 O         139.7414  146.2992  162.0226 O.2     1  UNL1       -0.2702
     17 H         137.2764  144.0132  162.9430 H       1  UNL1        0.1453
     18 H         137.1883  145.2360  161.7577 H       1  UNL1        0.1453
     19 N         142.3537  144.9369  162.9604 N.pl3   1  UNL1       -0.2964
     20 H         142.6693  145.8594  163.0969 H       1  UNL1        0.1537
     21 C         142.8573  144.1365  161.7960 C.ar    1  UNL1        0.0494
     22 C         144.1749  143.4257  161.8883 C.ar    1  UNL1        0.0143
     23 C         144.6784  142.6254  160.7238 C.ar    1  UNL1       -0.0030
     24 C         143.8643  142.5359  159.4672 C.ar    1  UNL1       -0.0224
     25 C         142.5467  143.2467  159.3750 C.ar    1  UNL1       -0.0030
     26 C         142.0432  144.0470  160.5394 C.ar    1  UNL1        0.0143
     27 C         144.3678  141.7355  158.3027 C.3     1  UNL1        0.0224
     28 C         145.3414  141.5519  157.1764 C.3     1  UNL1        0.0047
     29 C         144.2663  140.5328  157.4121 C.3     1  UNL1        0.0047
@<TRIPOS>BOND
     1    12    13    3
     2     6    13    1
     3     6     7    1
     4     7     8    1
     5     8     9    1
     6     9    10    1
     7    10    11    1
     8    11     1    1
     9     1     2   ar
    10     2     3   ar
    11     3    14    1
    12    14    15   am
    13    14    16    2
    14     3     4   ar
    15     4    19    1
    16    19    21    1
    17    21    22   ar
    18    22    23   ar
    19    23    24   ar
    20    24    27    1
    21    27    28    1
    22    28    29    1
    23    24    25   ar
    24    25    26   ar
    25     4     5   ar
    26    11     6    1
    27     5     1   ar
    28    26    21   ar
    29    29    27    1
    30    15    17    1
    31    15    18    1
    32    19    20    1
@<TRIPOS>MOLECULE
*****
 29 32 0 0 0
SMALL
GASTEIGER

@<TRIPOS>ATOM
      1 N         140.1784  140.2807  160.6249 N.ar    1  UNL1       -0.2465
      2 C         139.9694  141.7660  160.6424 C.ar    1  UNL1        0.1025
      3 C         139.0573  142.0922  161.7877 C.ar    1  UNL1        0.1051
      4 C         138.7025  140.8085  162.4779 C.ar    1  UNL1        0.1578
      5 N         139.3954  139.6890  161.7592 N.ar    1  UNL1       -0.1539
      6 C         140.4982  139.2322  158.2694 C.3     1  UNL1        0.1187
      7 C         141.3420  138.4720  157.2895 C.3     1  UNL1        0.0492
      8 C         142.7099  138.0004  157.6852 C.3     1  UNL1        0.1434
      9 O         143.2339  138.2888  159.0608 O.3     1  UNL1       -0.3516
     10 C         142.3900  139.0489  160.0406 C.3     1  UNL1        0.1674
     11 C         141.0222  139.5206  159.6449 C.3     1  UNL1        0.1488
     12 N         137.7626  140.1755  157.4780 N.1     1  UNL1       -0.1958
     13 C         139.1304  139.7038  157.8737 C.1     1  UNL1        0.0742
     14 C         138.5831  143.4617  162.1747 C.2     1  UNL1        0.2470
     15 N         139.1862  144.6743  161.5299 N.am    1  UNL1       -0.3252
     16 O         137.5058  143.6185  163.2066 O.2     1  UNL1       -0.2702
     17 H         139.8933  144.5714  160.8526 H       1  UNL1        0.1453
     18 H         138.8750  145.5731  161.7839 H       1  UNL1        0.1453
     19 N         137.8113  140.6690  163.6764 N.pl3   1  UNL1       -0.2964
     20 H         136.8331  140.6796  163.5663 H       1  UNL1        0.1537
     21 C         138.4107  140.5132  165.0426 C.ar    1  UNL1        0.0494
     22 C         138.0172  139.3515  165.9062 C.ar    1  UNL1        0.0143
     23 C         138.6166  139.1958  167.2723 C.ar    1  UNL1       -0.0030
     24 C         139.6094  140.2016  167.7749 C.ar    1  UNL1       -0.0224
     25 C         140.0029  141.3632  166.9113 C.ar    1  UNL1       -0.0030
     26 C         139.4035  141.5190  165.5451 C.ar    1  UNL1        0.0143
     27 C         140.2089  140.0458  169.1411 C.3     1  UNL1        0.0224
     28 C         140.0644  140.0729  170.6339 C.3     1  UNL1        0.0047
     29 C         141.3916  139.7489  170.0146 C.3     1  UNL1        0.0047
@<TRIPOS>BOND
     1    12    13    3
     2     6    13    1
     3     6     7    1
     4     7     8    1
     5     8     9    1
     6     9    10    1
     7    10    11    1
     8    11     1    1
     9     1     2   ar
    10     2     3   ar
    11     3    14    1
    12    14    15   am
    13    14    16    2
    14     3     4   ar
    15     4    19    1
    16    19    21    1
    17    21    22   ar
    18    22    23   ar
    19    23    24   ar
    20    24    27    1
    21    27    28    1
    22    28    29    1
    23    24    25   ar
    24    25    26   ar
    25     4     5   ar
    26    11     6    1
    27     5     1   ar
    28    26    21   ar
    29    29    27    1
    30    15    17    1
    31    15    18    1
    32    19    20    1
@<TRIPOS>MOLECULE
*****
 29 32 0 0 0
SMALL
GASTEIGER

@<TRIPOS>ATOM
      1 N         140.7990  140.8235  160.6263 N.ar    1  UNL1       -0.2465
      2 C         139.3462  140.8545  160.9982 C.ar    1  UNL1        0.1025
      3 C         139.1683  141.8698  162.0880 C.ar    1  UNL1        0.1051
      4 C         140.5112  142.4663  162.3896 C.ar    1  UNL1        0.1578
      5 N         141.5190  141.8196  161.4862 N.ar    1  UNL1       -0.1539
      6 C         142.0186  138.6278  159.9617 C.3     1  UNL1        0.1187
      7 C         142.6419  137.7541  158.9139 C.3     1  UNL1        0.0492
      8 C         142.6692  138.2024  157.4827 C.3     1  UNL1        0.1434
      9 O         142.0730  139.5244  157.0994 O.3     1  UNL1       -0.3516
     10 C         141.4496  140.3980  158.1472 C.3     1  UNL1        0.1674
     11 C         141.4224  139.9497  159.5784 C.3     1  UNL1        0.1488
     12 N         141.9641  137.7312  162.8241 N.1     1  UNL1       -0.1958
     13 C         141.9913  138.1795  161.3929 C.1     1  UNL1        0.0742
     14 C         137.8746  142.2261  162.7584 C.2     1  UNL1        0.2470
     15 N         136.9203  141.1444  163.1700 N.am    1  UNL1       -0.3252
     16 O         137.5351  143.6640  163.0173 O.2     1  UNL1       -0.2702
     17 H         137.1431  140.2006  163.0001 H       1  UNL1        0.1453
     18 H         136.0713  141.3783  163.6101 H       1  UNL1        0.1453
     19 N         140.7962  143.5237  163.4146 N.pl3   1  UNL1       -0.2964
     20 H         140.6130  144.4692  163.2104 H       1  UNL1        0.1537
     21 C         141.3603  143.1405  164.7506 C.ar    1  UNL1        0.0494
     22 C         142.8394  142.9520  164.9141 C.ar    1  UNL1        0.0143
     23 C         143.4034  142.5688  166.2500 C.ar    1  UNL1       -0.0030
     24 C         142.4884  142.3741  167.4226 C.ar    1  UNL1       -0.0224
     25 C         141.0094  142.5626  167.2591 C.ar    1  UNL1       -0.0030
     26 C         140.4452  142.9458  165.9231 C.ar    1  UNL1        0.0143
     27 C         143.0525  141.9909  168.7587 C.3     1  UNL1        0.0224
     28 C         143.9280  142.3010  169.9365 C.3     1  UNL1        0.0047
     29 C         143.1539  141.0169  169.8949 C.3     1  UNL1        0.0047
@<TRIPOS>BOND
     1    12    13    3
     2     6    13    1
     3     6     7    1
     4     7     8    1
     5     8     9    1
     6     9    10    1
     7    10    11    1
     8    11     1    1
     9     1     2   ar
    10     2     3   ar
    11     3    14    1
    12    14    15   am
    13    14    16    2
    14     3     4   ar
    15     4    19    1
    16    19    21    1
    17    21    22   ar
    18    22    23   ar
    19    23    24   ar
    20    24    27    1
    21    27    28    1
    22    28    29    1
    23    24    25   ar
    24    25    26   ar
    25     4     5   ar
    26    11     6    1
    27     5     1   ar
    28    26    21   ar
    29    29    27    1
    30    15    17    1
    31    15    18    1
    32    19    20    1
