@<TRIPOS>MOLECULE
*****
 49 56 0 0 0
SMALL
GASTEIGER

@<TRIPOS>ATOM
      1 C         140.6609  144.7780  157.7838 C.ar    1  UNL1        0.1384
      2 C         141.5090  144.3324  156.6296 C.ar    1  UNL1        0.0369
      3 C         141.9239  142.8955  156.5145 C.ar    1  UNL1        0.0042
      4 C         141.4907  141.9042  157.5534 C.ar    1  UNL1        0.0117
      5 C         140.6426  142.3497  158.7077 C.ar    1  UNL1       -0.0176
      6 C         140.2277  143.7866  158.8229 C.ar    1  UNL1        0.0327
      7 C         140.1055  141.5315  159.8444 C.3     1  UNL1        0.0330
      8 C         139.4766  140.9045  161.0532 C.3     1  UNL1        0.0157
      9 C         140.2839  140.0655  160.1075 C.3     1  UNL1        0.0938
     10 C         141.0434  139.0559  159.2990 C.3     1  UNL1        0.1148
     11 N         141.8122  139.2626  158.0277 N.ar    1  UNL1       -0.3269
     12 C         142.0112  140.5303  157.2508 C.ar    1  UNL1        0.0555
     13 C         142.8568  140.2123  156.0535 C.ar    1  UNL1       -0.0053
     14 C         143.1804  138.7481  156.0903 C.ar    1  UNL1        0.0132
     15 C         143.9796  137.8732  155.1704 C.ar    1  UNL1        0.0013
     16 C         144.1331  136.4117  155.4707 C.ar    1  UNL1        0.0046
     17 C         143.4874  135.8248  156.6908 C.ar    1  UNL1        0.0563
     18 C         142.6883  136.6995  157.6107 C.ar    1  UNL1        0.0217
     19 C         142.5347  138.1612  157.3105 C.ar    1  UNL1        0.0597
     20 C         139.9642  138.9233  161.0258 C.2     1  UNL1        0.2268
     21 O         138.7566  138.0710  160.7702 O.2     1  UNL1       -0.2748
     22 N         140.8521  138.6334  162.1994 N.am    1  UNL1       -0.2800
     23 C         142.0874  139.3946  162.5798 C.3     1  UNL1        0.0913
     24 C         142.6593  138.7630  163.8143 C.3     1  UNL1        0.0230
     25 C         141.7775  137.6114  164.1969 C.3     1  UNL1        0.0230
     26 C         140.6606  137.5314  163.1988 C.3     1  UNL1        0.0913
     27 C         139.6721  137.6899  162.0688 C.3     1  UNL1        0.0922
     28 N         139.9919  138.8322  161.1506 N.3     1  UNL1       -0.2687
     29 C         139.1040  139.1222  159.9768 C.3     1  UNL1        0.0897
     30 C         141.1994  139.6845  161.4061 C.3     1  UNL1        0.0922
     31 C         143.3009  141.1872  155.0036 C.3     1  UNL1        0.0238
     32 C         142.4357  141.4452  153.8056 C.3     1  UNL1        0.0044
     33 C         142.8798  142.4200  152.7558 C.3     1  UNL1        0.0003
     34 C         144.1890  143.1370  152.9037 C.3     1  UNL1        0.0000
     35 C         145.0542  142.8790  154.1016 C.3     1  UNL1        0.0003
     36 C         144.6101  141.9041  155.1515 C.3     1  UNL1        0.0044
     37 C         143.6409  134.3633  156.9911 C.2     1  UNL1        0.2640
     38 O         143.7606  133.8980  158.4121 O.2     1  UNL1       -0.2686
     39 N         143.6748  133.3668  155.8704 N.am    1  UNL1       -0.1852
     40 H         143.5962  133.6721  154.9378 H       1  UNL1        0.1765
     41 S         143.8283  131.9052  156.1706 S.O2    1  UNL1        0.0562
     42 O         142.3361  131.7543  156.1981 O.2     1  UNL1       -0.1544
     43 O         145.3204  132.0561  156.1431 O.2     1  UNL1       -0.1544
     44 C         143.9816  130.4436  156.4708 C.3     1  UNL1        0.1724
     45 C         144.4821  129.5085  155.4100 C.3     1  UNL1        0.0256
     46 C         145.3039  128.3130  155.7910 C.3     1  UNL1        0.0019
     47 C         144.1606  129.7690  153.9682 C.3     1  UNL1        0.0019
     48 C         139.6004  146.9047  156.7340 C.3     1  UNL1        0.2525
     49 O         140.2461  146.2148  157.8990 O.3     1  UNL1       -0.4714
@<TRIPOS>BOND
     1    48    49    1
     2    49     1    1
     3     1     2   ar
     4     2     3   ar
     5     3     4   ar
     6     4     5   ar
     7     5     6   ar
     8     5     7    1
     9     7     8    1
    10     8     9    1
    11     9    20    1
    12    20    21    2
    13    20    22   am
    14    22    23    1
    15    23    24    1
    16    24    25    1
    17    25    26    1
    18    26    27    1
    19    27    28    1
    20    28    29    1
    21    28    30    1
    22     9    10    1
    23    10    11    1
    24    11    12   ar
    25    12    13   ar
    26    13    31    1
    27    31    32    1
    28    32    33    1
    29    33    34    1
    30    34    35    1
    31    35    36    1
    32    13    14   ar
    33    14    15   ar
    34    15    16   ar
    35    16    17   ar
    36    17    37    1
    37    37    38    2
    38    37    39   am
    39    39    41    1
    40    41    42    2
    41    41    43    2
    42    41    44    1
    43    44    45    1
    44    45    46    1
    45    45    47    1
    46    17    18   ar
    47    18    19   ar
    48     6     1   ar
    49     9     7    1
    50    26    22    1
    51    19    11   ar
    52    12     4    1
    53    36    31    1
    54    19    14   ar
    55    30    23    1
    56    39    40    1
@<TRIPOS>MOLECULE
*****
 49 56 0 0 0
SMALL
GASTEIGER

@<TRIPOS>ATOM
      1 C         140.3106  141.3514  153.7421 C.ar    1  UNL1        0.1384
      2 C         140.9132  140.0221  154.0883 C.ar    1  UNL1        0.0369
      3 C         141.3672  139.7469  155.4912 C.ar    1  UNL1        0.0042
      4 C         141.2187  140.8010  156.5478 C.ar    1  UNL1        0.0117
      5 C         140.6162  142.1304  156.2018 C.ar    1  UNL1       -0.0176
      6 C         140.1621  142.4056  154.7988 C.ar    1  UNL1        0.0327
      7 C         140.3784  143.3109  157.0962 C.3     1  UNL1        0.0330
      8 C         140.0567  144.5912  157.8083 C.3     1  UNL1        0.0157
      9 C         140.6845  143.4536  158.5577 C.3     1  UNL1        0.0938
     10 C         141.3039  142.4510  159.4856 C.3     1  UNL1        0.1148
     11 N         141.7703  141.0581  159.1815 N.ar    1  UNL1       -0.3269
     12 C         141.7323  140.3239  157.8740 C.ar    1  UNL1        0.0555
     13 C         142.3166  138.9596  158.0914 C.ar    1  UNL1       -0.0053
     14 C         142.7157  138.8507  159.5332 C.ar    1  UNL1        0.0132
     15 C         143.3429  137.7381  160.3199 C.ar    1  UNL1        0.0013
     16 C         143.6325  137.9225  161.7800 C.ar    1  UNL1        0.0046
     17 C         143.2948  139.2194  162.4537 C.ar    1  UNL1        0.0563
     18 C         142.6676  140.3320  161.6671 C.ar    1  UNL1        0.0217
     19 C         142.3780  140.1477  160.2069 C.ar    1  UNL1        0.0597
     20 C         140.6286  144.3579  159.7531 C.2     1  UNL1        0.2268
     21 O         141.5822  145.5102  159.8671 O.2     1  UNL1       -0.2748
     22 N         139.6191  144.1099  160.8345 N.am    1  UNL1       -0.2800
     23 C         138.6065  143.0035  160.8585 C.3     1  UNL1        0.0913
     24 C         137.8066  143.1347  162.1207 C.3     1  UNL1        0.0230
     25 C         138.3249  144.3221  162.8767 C.3     1  UNL1        0.0230
     26 C         139.4451  144.9248  162.0818 C.3     1  UNL1        0.0913
     27 C         140.5136  145.3082  161.0866 C.3     1  UNL1        0.0922
     28 N         140.5695  144.4038  159.8911 N.3     1  UNL1       -0.2687
     29 C         141.5790  144.6517  158.8097 C.3     1  UNL1        0.0897
     30 C         139.6160  143.2516  159.7771 C.3     1  UNL1        0.0922
     31 C         142.4742  137.8917  157.0500 C.3     1  UNL1        0.0238
     32 C         143.7335  137.8156  156.2383 C.3     1  UNL1        0.0044
     33 C         143.8911  136.7478  155.1969 C.3     1  UNL1        0.0003
     34 C         142.7896  135.7559  154.9670 C.3     1  UNL1        0.0000
     35 C         141.5305  135.8319  155.7786 C.3     1  UNL1        0.0003
     36 C         141.3728  136.8998  156.8201 C.3     1  UNL1        0.0044
     37 C         143.5843  139.4038  163.9138 C.2     1  UNL1        0.2640
     38 O         144.9856  139.2486  164.4261 O.2     1  UNL1       -0.2686
     39 N         142.4726  139.7435  164.8619 N.am    1  UNL1       -0.1852
     40 H         141.5529  139.8454  164.5257 H       1  UNL1        0.1765
     41 S         142.7620  139.9279  166.3221 S.O2    1  UNL1        0.0562
     42 O         142.7751  138.4394  166.5074 O.2     1  UNL1       -0.1544
     43 O         142.7490  141.4163  166.1368 O.2     1  UNL1       -0.1544
     44 C         143.0514  140.1122  167.7823 C.3     1  UNL1        0.1724
     45 C         142.0289  139.7155  168.8055 C.3     1  UNL1        0.0256
     46 C         142.4482  138.9582  170.0305 C.3     1  UNL1        0.0019
     47 C         140.5869  140.0761  168.6037 C.3     1  UNL1        0.0019
     48 C         138.3930  141.6253  152.0108 C.3     1  UNL1        0.2525
     49 O         139.8566  141.6266  152.3392 O.3     1  UNL1       -0.4714
@<TRIPOS>BOND
     1    48    49    1
     2    49     1    1
     3     1     2   ar
     4     2     3   ar
     5     3     4   ar
     6     4     5   ar
     7     5     6   ar
     8     5     7    1
     9     7     8    1
    10     8     9    1
    11     9    20    1
    12    20    21    2
    13    20    22   am
    14    22    23    1
    15    23    24    1
    16    24    25    1
    17    25    26    1
    18    26    27    1
    19    27    28    1
    20    28    29    1
    21    28    30    1
    22     9    10    1
    23    10    11    1
    24    11    12   ar
    25    12    13   ar
    26    13    31    1
    27    31    32    1
    28    32    33    1
    29    33    34    1
    30    34    35    1
    31    35    36    1
    32    13    14   ar
    33    14    15   ar
    34    15    16   ar
    35    16    17   ar
    36    17    37    1
    37    37    38    2
    38    37    39   am
    39    39    41    1
    40    41    42    2
    41    41    43    2
    42    41    44    1
    43    44    45    1
    44    45    46    1
    45    45    47    1
    46    17    18   ar
    47    18    19   ar
    48     6     1   ar
    49     9     7    1
    50    26    22    1
    51    19    11   ar
    52    12     4    1
    53    36    31    1
    54    19    14   ar
    55    30    23    1
    56    39    40    1
@<TRIPOS>MOLECULE
*****
 49 56 0 0 0
SMALL
GASTEIGER

@<TRIPOS>ATOM
      1 C         142.0323  142.4175  154.9759 C.ar    1  UNL1        0.1384
      2 C         141.9262  140.9458  155.2456 C.ar    1  UNL1        0.0369
      3 C         141.6350  140.4567  156.6334 C.ar    1  UNL1        0.0042
      4 C         141.4498  141.4393  157.7515 C.ar    1  UNL1        0.0117
      5 C         141.5558  142.9110  157.4819 C.ar    1  UNL1       -0.0176
      6 C         141.8471  143.4002  156.0941 C.ar    1  UNL1        0.0327
      7 C         141.4069  144.0514  158.4448 C.3     1  UNL1        0.0330
      8 C         141.2976  145.3241  159.2312 C.3     1  UNL1        0.0157
      9 C         141.1152  144.0017  159.9154 C.3     1  UNL1        0.0938
     10 C         140.9003  142.7993  160.7860 C.3     1  UNL1        0.1148
     11 N         140.9240  141.3497  160.4013 N.ar    1  UNL1       -0.3269
     12 C         141.1686  140.7444  159.0508 C.ar    1  UNL1        0.0555
     13 C         141.0876  139.2531  159.1896 C.ar    1  UNL1       -0.0053
     14 C         140.7930  138.9367  160.6260 C.ar    1  UNL1        0.0132
     15 C         140.6037  137.6360  161.3489 C.ar    1  UNL1        0.0013
     16 C         140.3133  137.6311  162.8205 C.ar    1  UNL1        0.0046
     17 C         140.2122  138.9269  163.5693 C.ar    1  UNL1        0.0563
     18 C         140.4015  140.2275  162.8465 C.ar    1  UNL1        0.0217
     19 C         140.6919  140.2325  161.3748 C.ar    1  UNL1        0.0597
     20 C         140.8979  144.8047  161.1636 C.2     1  UNL1        0.2268
     21 O         139.6041  145.5353  161.3697 O.2     1  UNL1       -0.2748
     22 N         141.9743  144.8769  162.2057 N.am    1  UNL1       -0.2800
     23 C         143.3128  144.2031  162.1389 C.3     1  UNL1        0.0913
     24 C         144.0669  144.5455  163.3896 C.3     1  UNL1        0.0230
     25 C         143.1945  145.4309  164.2293 C.3     1  UNL1        0.0230
     26 C         141.9012  145.6357  163.4976 C.3     1  UNL1        0.0913
     27 C         140.7253  145.6644  162.5512 C.3     1  UNL1        0.0922
     28 N         140.9426  144.8615  161.3030 N.3     1  UNL1       -0.2687
     29 C         139.8662  144.7891  160.2608 C.3     1  UNL1        0.0897
     30 C         142.2363  144.1309  161.0969 C.3     1  UNL1        0.0922
     31 C         141.2693  138.2537  158.0861 C.3     1  UNL1        0.0238
     32 C         142.6168  137.6405  157.8438 C.3     1  UNL1        0.0044
     33 C         142.7985  136.6411  156.7403 C.3     1  UNL1        0.0003
     34 C         141.6329  136.2546  155.8788 C.3     1  UNL1        0.0000
     35 C         140.2855  136.8677  156.1211 C.3     1  UNL1        0.0003
     36 C         140.1038  137.8672  157.2247 C.3     1  UNL1        0.0044
     37 C         139.9219  138.9221  165.0408 C.2     1  UNL1        0.2640
     38 O         139.0480  137.8544  165.6294 O.2     1  UNL1       -0.2686
     39 N         140.5053  139.9849  165.9240 N.am    1  UNL1       -0.1852
     40 H         141.0789  140.6857  165.5377 H       1  UNL1        0.1765
     41 S         140.2150  139.9802  167.3956 S.O2    1  UNL1        0.0562
     42 O         138.7808  140.3175  167.1136 O.2     1  UNL1       -0.1544
     43 O         141.6491  139.6429  167.6775 O.2     1  UNL1       -0.1544
     44 C         139.9246  139.9754  168.8672 C.3     1  UNL1        0.1724
     45 C         140.3992  141.1077  169.7290 C.3     1  UNL1        0.0256
     46 C         140.9684  140.8281  171.0883 C.3     1  UNL1        0.0019
     47 C         140.3045  142.5196  169.2315 C.3     1  UNL1        0.0019
     48 C         143.4613  143.8548  153.3505 C.3     1  UNL1        0.2525
     49 O         142.3235  142.9066  153.5882 O.3     1  UNL1       -0.4714
@<TRIPOS>BOND
     1    48    49    1
     2    49     1    1
     3     1     2   ar
     4     2     3   ar
     5     3     4   ar
     6     4     5   ar
     7     5     6   ar
     8     5     7    1
     9     7     8    1
    10     8     9    1
    11     9    20    1
    12    20    21    2
    13    20    22   am
    14    22    23    1
    15    23    24    1
    16    24    25    1
    17    25    26    1
    18    26    27    1
    19    27    28    1
    20    28    29    1
    21    28    30    1
    22     9    10    1
    23    10    11    1
    24    11    12   ar
    25    12    13   ar
    26    13    31    1
    27    31    32    1
    28    32    33    1
    29    33    34    1
    30    34    35    1
    31    35    36    1
    32    13    14   ar
    33    14    15   ar
    34    15    16   ar
    35    16    17   ar
    36    17    37    1
    37    37    38    2
    38    37    39   am
    39    39    41    1
    40    41    42    2
    41    41    43    2
    42    41    44    1
    43    44    45    1
    44    45    46    1
    45    45    47    1
    46    17    18   ar
    47    18    19   ar
    48     6     1   ar
    49     9     7    1
    50    26    22    1
    51    19    11   ar
    52    12     4    1
    53    36    31    1
    54    19    14   ar
    55    30    23    1
    56    39    40    1
@<TRIPOS>MOLECULE
*****
 49 56 0 0 0
SMALL
GASTEIGER

@<TRIPOS>ATOM
      1 C         140.7306  144.6044  157.5882 C.ar    1  UNL1        0.1384
      2 C         140.6789  143.9068  156.2613 C.ar    1  UNL1        0.0369
      3 C         141.0565  142.4586  156.1602 C.ar    1  UNL1        0.0042
      4 C         141.4857  141.7081  157.3859 C.ar    1  UNL1        0.0117
      5 C         141.5375  142.4056  158.7128 C.ar    1  UNL1       -0.0176
      6 C         141.1599  143.8539  158.8140 C.ar    1  UNL1        0.0327
      7 C         141.9339  141.8482  160.0477 C.3     1  UNL1        0.0330
      8 C         142.2886  141.4961  161.4620 C.3     1  UNL1        0.0157
      9 C         142.3765  140.4553  160.3855 C.3     1  UNL1        0.0938
     10 C         142.5320  139.2760  159.4716 C.3     1  UNL1        0.1148
     11 N         142.2833  139.1982  157.9945 N.ar    1  UNL1       -0.3269
     12 C         141.8177  140.2806  157.0662 C.ar    1  UNL1        0.0555
     13 C         141.7244  139.6996  155.6865 C.ar    1  UNL1       -0.0053
     14 C         142.1324  138.2581  155.7620 C.ar    1  UNL1        0.0132
     15 C         142.2340  137.1875  154.7162 C.ar    1  UNL1        0.0013
     16 C         142.6810  135.8073  155.0968 C.ar    1  UNL1        0.0046
     17 C         143.0264  135.4974  156.5232 C.ar    1  UNL1        0.0563
     18 C         142.9248  136.5679  157.5690 C.ar    1  UNL1        0.0217
     19 C         142.4778  137.9483  157.1885 C.ar    1  UNL1        0.0597
     20 C         142.8290  139.5285  161.4747 C.2     1  UNL1        0.2268
     21 O         144.2874  139.4184  161.8079 O.2     1  UNL1       -0.2748
     22 N         141.8231  138.7119  162.2305 N.am    1  UNL1       -0.2800
     23 C         140.3394  138.7162  162.0103 C.3     1  UNL1        0.0913
     24 C         139.7237  137.7545  162.9831 C.3     1  UNL1        0.0230
     25 C         140.8270  137.1558  163.8043 C.3     1  UNL1        0.0230
     26 C         142.1245  137.7475  163.3392 C.3     1  UNL1        0.0913
     27 C         143.2561  138.4959  162.6770 C.3     1  UNL1        0.0922
     28 N         142.8036  139.4227  161.5878 N.3     1  UNL1       -0.2687
     29 C         143.8095  140.2394  160.8319 C.3     1  UNL1        0.0897
     30 C         141.3453  139.5328  161.2545 C.3     1  UNL1        0.0922
     31 C         141.2980  140.4314  154.4486 C.3     1  UNL1        0.0238
     32 C         139.8518  140.4533  154.0508 C.3     1  UNL1        0.0044
     33 C         139.4254  141.1850  152.8130 C.3     1  UNL1        0.0003
     34 C         140.4451  141.8951  151.9726 C.3     1  UNL1        0.0000
     35 C         141.8912  141.8733  152.3704 C.3     1  UNL1        0.0003
     36 C         142.3177  141.1415  153.6083 C.3     1  UNL1        0.0044
     37 C         143.4735  134.1171  156.9039 C.2     1  UNL1        0.2640
     38 O         143.8714  133.8214  158.3195 O.2     1  UNL1       -0.2686
     39 N         143.5226  133.0325  155.8688 N.am    1  UNL1       -0.1852
     40 H         143.2614  133.2267  154.9397 H       1  UNL1        0.1765
     41 S         143.9696  131.6522  156.2494 S.O2    1  UNL1        0.0562
     42 O         142.5377  131.2163  156.3499 O.2     1  UNL1       -0.1544
     43 O         145.4013  132.0881  156.1489 O.2     1  UNL1       -0.1544
     44 C         144.4165  130.2719  156.6299 C.3     1  UNL1        0.1724
     45 C         144.5069  129.1984  155.5861 C.3     1  UNL1        0.0256
     46 C         144.4400  127.7546  155.9874 C.3     1  UNL1        0.0019
     47 C         144.6641  129.5686  154.1411 C.3     1  UNL1        0.0019
     48 C         139.6159  146.7158  156.5639 C.3     1  UNL1        0.2525
     49 O         140.3531  146.0525  157.6893 O.3     1  UNL1       -0.4714
@<TRIPOS>BOND
     1    48    49    1
     2    49     1    1
     3     1     2   ar
     4     2     3   ar
     5     3     4   ar
     6     4     5   ar
     7     5     6   ar
     8     5     7    1
     9     7     8    1
    10     8     9    1
    11     9    20    1
    12    20    21    2
    13    20    22   am
    14    22    23    1
    15    23    24    1
    16    24    25    1
    17    25    26    1
    18    26    27    1
    19    27    28    1
    20    28    29    1
    21    28    30    1
    22     9    10    1
    23    10    11    1
    24    11    12   ar
    25    12    13   ar
    26    13    31    1
    27    31    32    1
    28    32    33    1
    29    33    34    1
    30    34    35    1
    31    35    36    1
    32    13    14   ar
    33    14    15   ar
    34    15    16   ar
    35    16    17   ar
    36    17    37    1
    37    37    38    2
    38    37    39   am
    39    39    41    1
    40    41    42    2
    41    41    43    2
    42    41    44    1
    43    44    45    1
    44    45    46    1
    45    45    47    1
    46    17    18   ar
    47    18    19   ar
    48     6     1   ar
    49     9     7    1
    50    26    22    1
    51    19    11   ar
    52    12     4    1
    53    36    31    1
    54    19    14   ar
    55    30    23    1
    56    39    40    1
@<TRIPOS>MOLECULE
*****
 49 56 0 0 0
SMALL
GASTEIGER

@<TRIPOS>ATOM
      1 C         139.9696  143.0264  155.6320 C.ar    1  UNL1        0.1384
      2 C         140.2726  141.5597  155.7146 C.ar    1  UNL1        0.0369
      3 C         140.5847  140.9318  157.0407 C.ar    1  UNL1        0.0042
      4 C         140.5938  141.7706  158.2841 C.ar    1  UNL1        0.0117
      5 C         140.2907  143.2374  158.2016 C.ar    1  UNL1       -0.0176
      6 C         139.9786  143.8653  156.8756 C.ar    1  UNL1        0.0327
      7 C         140.2468  144.2471  159.3100 C.3     1  UNL1        0.0330
      8 C         140.1507  145.4051  160.2585 C.3     1  UNL1        0.0157
      9 C         140.4950  144.0395  160.7747 C.3     1  UNL1        0.0938
     10 C         140.8485  142.7708  161.4926 C.3     1  UNL1        0.1148
     11 N         141.0411  141.3964  160.9234 N.ar    1  UNL1       -0.3269
     12 C         140.9277  140.9513  159.4954 C.ar    1  UNL1        0.0555
     13 C         141.2129  139.4796  159.4446 C.ar    1  UNL1       -0.0053
     14 C         141.5025  139.0152  160.8412 C.ar    1  UNL1        0.0132
     15 C         141.8493  137.6664  161.3988 C.ar    1  UNL1        0.0013
     16 C         142.0898  137.5025  162.8703 C.ar    1  UNL1        0.0046
     17 C         141.9835  138.6872  163.7842 C.ar    1  UNL1        0.0563
     18 C         141.6368  140.0358  163.2266 C.ar    1  UNL1        0.0217
     19 C         141.3963  140.1999  161.7551 C.ar    1  UNL1        0.0597
     20 C         140.5569  144.6887  162.1255 C.2     1  UNL1        0.2268
     21 O         141.7608  145.4936  162.5163 O.2     1  UNL1       -0.2748
     22 N         139.4148  144.5330  163.0854 N.am    1  UNL1       -0.2800
     23 C         138.1523  143.7624  162.8361 C.3     1  UNL1        0.0913
     24 C         137.2920  143.8738  164.0599 C.3     1  UNL1        0.0230
     25 C         138.0229  144.7133  165.0655 C.3     1  UNL1        0.0230
     26 C         139.3348  145.1207  164.4632 C.3     1  UNL1        0.0913
     27 C         140.5602  145.3721  163.6179 C.3     1  UNL1        0.0922
     28 N         140.4983  144.7229  162.2671 N.3     1  UNL1       -0.2687
     29 C         141.6403  144.8785  161.3070 C.3     1  UNL1        0.0897
     30 C         139.2943  143.9180  161.8762 C.3     1  UNL1        0.0922
     31 C         141.2092  138.6228  158.2135 C.3     1  UNL1        0.0238
     32 C         139.9156  138.0826  157.6795 C.3     1  UNL1        0.0044
     33 C         139.9118  137.2258  156.4485 C.3     1  UNL1        0.0003
     34 C         141.2016  136.9089  155.7512 C.3     1  UNL1        0.0000
     35 C         142.4951  137.4490  156.2851 C.3     1  UNL1        0.0003
     36 C         142.4989  138.3059  157.5163 C.3     1  UNL1        0.0044
     37 C         142.2240  138.5232  165.2556 C.2     1  UNL1        0.2640
     38 O         142.7173  137.2128  165.7936 O.2     1  UNL1       -0.2686
     39 N         141.9713  139.6698  166.1893 N.am    1  UNL1       -0.1852
     40 H         141.6475  140.5299  165.8362 H       1  UNL1        0.1765
     41 S         142.2117  139.5059  167.6607 S.O2    1  UNL1        0.0562
     42 O         140.7903  139.8979  167.9366 O.2     1  UNL1       -0.1544
     43 O         143.6331  139.1140  167.3849 O.2     1  UNL1       -0.1544
     44 C         142.4521  139.3421  169.1322 C.3     1  UNL1        0.1724
     45 C         142.4914  140.5472  170.0245 C.3     1  UNL1        0.0256
     46 C         143.4515  141.6630  169.7361 C.3     1  UNL1        0.0019
     47 C         141.5707  140.6366  171.2052 C.3     1  UNL1        0.0019
     48 C         140.0471  145.0782  154.0402 C.3     1  UNL1        0.2525
     49 O         139.6575  143.6543  154.3061 O.3     1  UNL1       -0.4714
@<TRIPOS>BOND
     1    48    49    1
     2    49     1    1
     3     1     2   ar
     4     2     3   ar
     5     3     4   ar
     6     4     5   ar
     7     5     6   ar
     8     5     7    1
     9     7     8    1
    10     8     9    1
    11     9    20    1
    12    20    21    2
    13    20    22   am
    14    22    23    1
    15    23    24    1
    16    24    25    1
    17    25    26    1
    18    26    27    1
    19    27    28    1
    20    28    29    1
    21    28    30    1
    22     9    10    1
    23    10    11    1
    24    11    12   ar
    25    12    13   ar
    26    13    31    1
    27    31    32    1
    28    32    33    1
    29    33    34    1
    30    34    35    1
    31    35    36    1
    32    13    14   ar
    33    14    15   ar
    34    15    16   ar
    35    16    17   ar
    36    17    37    1
    37    37    38    2
    38    37    39   am
    39    39    41    1
    40    41    42    2
    41    41    43    2
    42    41    44    1
    43    44    45    1
    44    45    46    1
    45    45    47    1
    46    17    18   ar
    47    18    19   ar
    48     6     1   ar
    49     9     7    1
    50    26    22    1
    51    19    11   ar
    52    12     4    1
    53    36    31    1
    54    19    14   ar
    55    30    23    1
    56    39    40    1
@<TRIPOS>MOLECULE
*****
 49 56 0 0 0
SMALL
GASTEIGER

@<TRIPOS>ATOM
      1 C         140.4931  143.7455  163.6814 C.ar    1  UNL1        0.1384
      2 C         141.1393  142.4568  164.0958 C.ar    1  UNL1        0.0369
      3 C         141.4634  141.4152  163.0662 C.ar    1  UNL1        0.0042
      4 C         141.1412  141.6623  161.6223 C.ar    1  UNL1        0.0117
      5 C         140.4950  142.9509  161.2078 C.ar    1  UNL1       -0.0176
      6 C         140.1710  143.9926  162.2373 C.ar    1  UNL1        0.0327
      7 C         140.0929  143.3958  159.8328 C.3     1  UNL1        0.0330
      8 C         139.6200  144.0284  158.5577 C.3     1  UNL1        0.0157
      9 C         140.2378  142.6618  158.5327 C.3     1  UNL1        0.0938
     10 C         140.8205  141.3017  158.2865 C.3     1  UNL1        0.1148
     11 N         141.4022  140.3396  159.2795 N.ar    1  UNL1       -0.3269
     12 C         141.5450  140.5002  160.7640 C.ar    1  UNL1        0.0555
     13 C         142.1884  139.2578  161.3048 C.ar    1  UNL1       -0.0053
     14 C         142.4434  138.3296  160.1545 C.ar    1  UNL1        0.0132
     15 C         143.0553  136.9617  160.0851 C.ar    1  UNL1        0.0013
     16 C         143.1812  136.2626  158.7640 C.ar    1  UNL1        0.0046
     17 C         142.6953  136.9312  157.5122 C.ar    1  UNL1        0.0563
     18 C         142.0834  138.2990  157.5816 C.ar    1  UNL1        0.0217
     19 C         141.9575  138.9982  158.9028 C.ar    1  UNL1        0.0597
     20 C         140.0027  142.7056  157.0518 C.2     1  UNL1        0.2268
     21 O         141.0632  143.2475  156.1398 O.2     1  UNL1       -0.2748
     22 N         138.7072  142.2075  156.4831 N.am    1  UNL1       -0.2800
     23 C         137.5602  141.6412  157.2665 C.3     1  UNL1        0.0913
     24 C         136.4753  141.2720  156.2986 C.3     1  UNL1        0.0230
     25 C         136.9519  141.6101  154.9170 C.3     1  UNL1        0.0230
     26 C         138.3312  142.1883  155.0312 C.3     1  UNL1        0.0913
     27 C         139.6811  142.7249  155.4423 C.3     1  UNL1        0.0922
     28 N         139.9162  142.6812  156.9232 N.3     1  UNL1       -0.2687
     29 C         141.2117  143.1792  157.4920 C.3     1  UNL1        0.0897
     30 C         138.8557  142.1393  157.8352 C.3     1  UNL1        0.0922
     31 C         142.5190  138.9906  162.7433 C.3     1  UNL1        0.0238
     32 C         143.8413  139.4255  163.3023 C.3     1  UNL1        0.0044
     33 C         144.1719  139.1583  164.7407 C.3     1  UNL1        0.0003
     34 C         143.1801  138.4562  165.6203 C.3     1  UNL1        0.0000
     35 C         141.8579  138.0214  165.0614 C.3     1  UNL1        0.0003
     36 C         141.5273  138.2886  163.6229 C.3     1  UNL1        0.0044
     37 C         142.8212  136.2322  156.1911 C.2     1  UNL1        0.2640
     38 O         143.8506  136.6845  155.1983 O.2     1  UNL1       -0.2686
     39 N         141.9177  135.0807  155.8628 N.am    1  UNL1       -0.1852
     40 H         141.2421  134.7838  156.5144 H       1  UNL1        0.1765
     41 S         142.0436  134.3815  154.5417 S.O2    1  UNL1        0.0562
     42 O         143.1558  133.5396  155.0933 O.2     1  UNL1       -0.1544
     43 O         140.9314  135.2233  153.9901 O.2     1  UNL1       -0.1544
     44 C         142.1695  133.6823  153.2206 C.3     1  UNL1        0.1724
     45 C         141.9504  132.2010  153.1322 C.3     1  UNL1        0.0256
     46 C         142.9731  131.3301  152.4647 C.3     1  UNL1        0.0019
     47 C         140.7086  131.5906  153.7112 C.3     1  UNL1        0.0019
     48 C         138.8041  144.8292  165.3314 C.3     1  UNL1        0.2525
     49 O         140.1691  144.7871  164.7109 O.3     1  UNL1       -0.4714
@<TRIPOS>BOND
     1    48    49    1
     2    49     1    1
     3     1     2   ar
     4     2     3   ar
     5     3     4   ar
     6     4     5   ar
     7     5     6   ar
     8     5     7    1
     9     7     8    1
    10     8     9    1
    11     9    20    1
    12    20    21    2
    13    20    22   am
    14    22    23    1
    15    23    24    1
    16    24    25    1
    17    25    26    1
    18    26    27    1
    19    27    28    1
    20    28    29    1
    21    28    30    1
    22     9    10    1
    23    10    11    1
    24    11    12   ar
    25    12    13   ar
    26    13    31    1
    27    31    32    1
    28    32    33    1
    29    33    34    1
    30    34    35    1
    31    35    36    1
    32    13    14   ar
    33    14    15   ar
    34    15    16   ar
    35    16    17   ar
    36    17    37    1
    37    37    38    2
    38    37    39   am
    39    39    41    1
    40    41    42    2
    41    41    43    2
    42    41    44    1
    43    44    45    1
    44    45    46    1
    45    45    47    1
    46    17    18   ar
    47    18    19   ar
    48     6     1   ar
    49     9     7    1
    50    26    22    1
    51    19    11   ar
    52    12     4    1
    53    36    31    1
    54    19    14   ar
    55    30    23    1
    56    39    40    1
@<TRIPOS>MOLECULE
*****
 49 56 0 0 0
SMALL
GASTEIGER

@<TRIPOS>ATOM
      1 C         139.1746  139.8605  154.4996 C.ar    1  UNL1        0.1384
      2 C         140.3387  138.9469  154.7453 C.ar    1  UNL1        0.0369
      3 C         140.9540  138.8667  156.1110 C.ar    1  UNL1        0.0042
      4 C         140.4053  139.7000  157.2309 C.ar    1  UNL1        0.0117
      5 C         139.2412  140.6136  156.9854 C.ar    1  UNL1       -0.0176
      6 C         138.6259  140.6939  155.6197 C.ar    1  UNL1        0.0327
      7 C         138.5455  141.5232  157.9542 C.3     1  UNL1        0.0330
      8 C         137.7184  142.4887  158.7502 C.3     1  UNL1        0.0157
      9 C         138.8420  141.7438  159.4079 C.3     1  UNL1        0.0938
     10 C         139.9074  141.1093  160.2519 C.3     1  UNL1        0.1148
     11 N         140.9395  140.0975  159.8506 N.ar    1  UNL1       -0.3269
     12 C         141.1610  139.4703  158.5061 C.ar    1  UNL1        0.0555
     13 C         142.3169  138.5214  158.6221 C.ar    1  UNL1       -0.0053
     14 C         142.8097  138.5621  160.0382 C.ar    1  UNL1        0.0132
     15 C         143.9238  137.8380  160.7346 C.ar    1  UNL1        0.0013
     16 C         144.1864  138.0881  162.1901 C.ar    1  UNL1        0.0046
     17 C         143.3351  139.0622  162.9493 C.ar    1  UNL1        0.0563
     18 C         142.2211  139.7863  162.2530 C.ar    1  UNL1        0.0217
     19 C         141.9584  139.5362  160.7974 C.ar    1  UNL1        0.0597
     20 C         138.4525  142.4824  160.6541 C.2     1  UNL1        0.2268
     21 O         137.4363  141.8944  161.5877 O.2     1  UNL1       -0.2748
     22 N         139.0792  143.8088  160.9666 N.am    1  UNL1       -0.2800
     23 C         140.1041  144.5182  160.1321 C.3     1  UNL1        0.0913
     24 C         140.4494  145.8067  160.8183 C.3     1  UNL1        0.0230
     25 C         139.6378  145.8936  162.0768 C.3     1  UNL1        0.0230
     26 C         138.7910  144.6589  162.1684 C.3     1  UNL1        0.0913
     27 C         138.0717  143.3423  161.9994 C.3     1  UNL1        0.0922
     28 N         138.4612  142.6037  160.7533 N.3     1  UNL1       -0.2687
     29 C         137.8345  141.2772  160.4407 C.3     1  UNL1        0.0897
     30 C         139.4774  143.1917  159.8196 C.3     1  UNL1        0.0922
     31 C         142.8810  137.6795  157.5162 C.3     1  UNL1        0.0238
     32 C         142.6049  136.2055  157.4802 C.3     1  UNL1        0.0044
     33 C         143.1689  135.3637  156.3744 C.3     1  UNL1        0.0003
     34 C         144.0091  135.9957  155.3044 C.3     1  UNL1        0.0000
     35 C         144.2851  137.4696  155.3404 C.3     1  UNL1        0.0003
     36 C         143.7211  138.3115  156.4463 C.3     1  UNL1        0.0044
     37 C         143.5977  139.3123  164.4047 C.2     1  UNL1        0.2640
     38 O         144.9921  139.1981  164.9457 O.2     1  UNL1       -0.2686
     39 N         142.4659  139.6764  165.3194 N.am    1  UNL1       -0.1852
     40 H         141.5508  139.7514  164.9643 H       1  UNL1        0.1765
     41 S         142.7285  139.9265  166.7749 S.O2    1  UNL1        0.0562
     42 O         143.0000  138.4651  166.9769 O.2     1  UNL1       -0.1544
     43 O         142.4570  141.3878  166.5729 O.2     1  UNL1       -0.1544
     44 C         142.9910  140.1765  168.2304 C.3     1  UNL1        0.1724
     45 C         142.0660  139.6115  169.2672 C.3     1  UNL1        0.0256
     46 C         142.5985  138.6930  170.3268 C.3     1  UNL1        0.0019
     47 C         140.6084  139.9649  169.2444 C.3     1  UNL1        0.0019
     48 C         137.2304  139.2968  152.8712 C.3     1  UNL1        0.2525
     49 O         138.5594  139.9408  153.1341 O.3     1  UNL1       -0.4714
@<TRIPOS>BOND
     1    48    49    1
     2    49     1    1
     3     1     2   ar
     4     2     3   ar
     5     3     4   ar
     6     4     5   ar
     7     5     6   ar
     8     5     7    1
     9     7     8    1
    10     8     9    1
    11     9    20    1
    12    20    21    2
    13    20    22   am
    14    22    23    1
    15    23    24    1
    16    24    25    1
    17    25    26    1
    18    26    27    1
    19    27    28    1
    20    28    29    1
    21    28    30    1
    22     9    10    1
    23    10    11    1
    24    11    12   ar
    25    12    13   ar
    26    13    31    1
    27    31    32    1
    28    32    33    1
    29    33    34    1
    30    34    35    1
    31    35    36    1
    32    13    14   ar
    33    14    15   ar
    34    15    16   ar
    35    16    17   ar
    36    17    37    1
    37    37    38    2
    38    37    39   am
    39    39    41    1
    40    41    42    2
    41    41    43    2
    42    41    44    1
    43    44    45    1
    44    45    46    1
    45    45    47    1
    46    17    18   ar
    47    18    19   ar
    48     6     1   ar
    49     9     7    1
    50    26    22    1
    51    19    11   ar
    52    12     4    1
    53    36    31    1
    54    19    14   ar
    55    30    23    1
    56    39    40    1
@<TRIPOS>MOLECULE
*****
 49 56 0 0 0
SMALL
GASTEIGER

@<TRIPOS>ATOM
      1 C         142.3438  138.0251  157.8336 C.ar    1  UNL1        0.1384
      2 C         141.9582  138.4892  156.4603 C.ar    1  UNL1        0.0369
      3 C         141.5175  139.9066  156.2439 C.ar    1  UNL1        0.0042
      4 C         141.4623  140.8598  157.4006 C.ar    1  UNL1        0.0117
      5 C         141.8479  140.3958  158.7740 C.ar    1  UNL1       -0.0176
      6 C         142.2887  138.9784  158.9905 C.ar    1  UNL1        0.0327
      7 C         141.8644  141.1765  160.0547 C.3     1  UNL1        0.0330
      8 C         141.9523  141.7673  161.4306 C.3     1  UNL1        0.0157
      9 C         141.4995  142.6141  160.2784 C.3     1  UNL1        0.0938
     10 C         141.0278  143.6261  159.2766 C.3     1  UNL1        0.1148
     11 N         140.8046  143.4504  157.8038 N.ar    1  UNL1       -0.3269
     12 C         140.9980  142.2193  156.9689 C.ar    1  UNL1        0.0555
     13 C         140.6396  142.5587  155.5525 C.ar    1  UNL1       -0.0053
     14 C         140.2248  143.9997  155.5120 C.ar    1  UNL1        0.0132
     15 C         139.7673  144.8813  154.3878 C.ar    1  UNL1        0.0013
     16 C         139.4119  146.3138  154.6551 C.ar    1  UNL1        0.0046
     17 C         139.5138  146.8648  156.0465 C.ar    1  UNL1        0.0563
     18 C         139.9713  145.9833  157.1706 C.ar    1  UNL1        0.0217
     19 C         140.3268  144.5507  156.9034 C.ar    1  UNL1        0.0597
     20 C         141.3738  143.7187  161.2855 C.2     1  UNL1        0.2268
     21 O         142.5245  144.6510  161.5237 O.2     1  UNL1       -0.2748
     22 N         140.0974  143.8908  162.0544 N.am    1  UNL1       -0.2800
     23 C         138.8684  143.0407  161.9247 C.3     1  UNL1        0.0913
     24 C         137.8374  143.5679  162.8782 C.3     1  UNL1        0.0230
     25 C         138.4292  144.7439  163.5972 C.3     1  UNL1        0.0230
     26 C         139.8259  144.9434  163.0880 C.3     1  UNL1        0.0913
     27 C         141.1698  144.9054  162.4011 C.3     1  UNL1        0.0922
     28 N         141.2955  143.8008  161.3940 N.3     1  UNL1       -0.2687
     29 C         142.5719  143.6286  160.6250 C.3     1  UNL1        0.0897
     30 C         140.1448  142.8685  161.1558 C.3     1  UNL1        0.0922
     31 C         140.6876  141.6219  154.3821 C.3     1  UNL1        0.0238
     32 C         139.4801  140.8075  154.0232 C.3     1  UNL1        0.0044
     33 C         139.5281  139.8707  152.8529 C.3     1  UNL1        0.0003
     34 C         140.7836  139.7481  152.0411 C.3     1  UNL1        0.0000
     35 C         141.9910  140.5625  152.3999 C.3     1  UNL1        0.0003
     36 C         141.9431  141.4994  153.5704 C.3     1  UNL1        0.0044
     37 C         139.1584  148.2973  156.3138 C.2     1  UNL1        0.2640
     38 O         138.4760  148.6742  157.5953 O.2     1  UNL1       -0.2686
     39 N         139.4853  149.3531  155.2996 N.am    1  UNL1       -0.1852
     40 H         139.9332  149.1057  154.4585 H       1  UNL1        0.1765
     41 S         139.1299  150.7856  155.5668 S.O2    1  UNL1        0.0562
     42 O         137.6975  150.3915  155.7741 O.2     1  UNL1       -0.1544
     43 O         140.5623  151.1797  155.3595 O.2     1  UNL1       -0.1544
     44 C         138.7744  152.2181  155.8340 C.3     1  UNL1        0.1724
     45 C         138.4491  153.1356  154.6928 C.3     1  UNL1        0.0256
     46 C         138.4096  152.6039  153.2908 C.3     1  UNL1        0.0019
     47 C         138.1633  154.5848  154.9536 C.3     1  UNL1        0.0019
     48 C         142.9527  135.6873  156.8777 C.3     1  UNL1        0.2525
     49 O         142.7846  136.6079  158.0501 O.3     1  UNL1       -0.4714
@<TRIPOS>BOND
     1    48    49    1
     2    49     1    1
     3     1     2   ar
     4     2     3   ar
     5     3     4   ar
     6     4     5   ar
     7     5     6   ar
     8     5     7    1
     9     7     8    1
    10     8     9    1
    11     9    20    1
    12    20    21    2
    13    20    22   am
    14    22    23    1
    15    23    24    1
    16    24    25    1
    17    25    26    1
    18    26    27    1
    19    27    28    1
    20    28    29    1
    21    28    30    1
    22     9    10    1
    23    10    11    1
    24    11    12   ar
    25    12    13   ar
    26    13    31    1
    27    31    32    1
    28    32    33    1
    29    33    34    1
    30    34    35    1
    31    35    36    1
    32    13    14   ar
    33    14    15   ar
    34    15    16   ar
    35    16    17   ar
    36    17    37    1
    37    37    38    2
    38    37    39   am
    39    39    41    1
    40    41    42    2
    41    41    43    2
    42    41    44    1
    43    44    45    1
    44    45    46    1
    45    45    47    1
    46    17    18   ar
    47    18    19   ar
    48     6     1   ar
    49     9     7    1
    50    26    22    1
    51    19    11   ar
    52    12     4    1
    53    36    31    1
    54    19    14   ar
    55    30    23    1
    56    39    40    1
@<TRIPOS>MOLECULE
*****
 49 56 0 0 0
SMALL
GASTEIGER

@<TRIPOS>ATOM
      1 C         140.4807  143.7696  163.6638 C.ar    1  UNL1        0.1384
      2 C         141.1573  142.4980  164.0824 C.ar    1  UNL1        0.0369
      3 C         141.4840  141.4505  163.0596 C.ar    1  UNL1        0.0042
      4 C         141.1342  141.6746  161.6184 C.ar    1  UNL1        0.0117
      5 C         140.4576  142.9461  161.1997 C.ar    1  UNL1       -0.0176
      6 C         140.1308  143.9937  162.2225 C.ar    1  UNL1        0.0327
      7 C         140.0253  143.3673  159.8265 C.3     1  UNL1        0.0330
      8 C         139.5202  143.9761  158.5521 C.3     1  UNL1        0.0157
      9 C         140.1628  142.6209  158.5327 C.3     1  UNL1        0.0938
     10 C         140.7667  141.2689  158.2927 C.3     1  UNL1        0.1148
     11 N         141.3821  140.3295  159.2870 N.ar    1  UNL1       -0.3269
     12 C         141.5456  140.5100  160.7671 C.ar    1  UNL1        0.0555
     13 C         142.2207  139.2862  161.3116 C.ar    1  UNL1       -0.0053
     14 C         142.4743  138.3493  160.1680 C.ar    1  UNL1        0.0132
     15 C         143.1103  136.9922  160.1043 C.ar    1  UNL1        0.0013
     16 C         143.2280  136.2800  158.7894 C.ar    1  UNL1        0.0046
     17 C         142.7097  136.9249  157.5382 C.ar    1  UNL1        0.0563
     18 C         142.0737  138.2819  157.6018 C.ar    1  UNL1        0.0217
     19 C         141.9560  138.9941  158.9167 C.ar    1  UNL1        0.0597
     20 C         139.9032  142.6429  157.0555 C.2     1  UNL1        0.2268
     21 O         138.6213  142.0860  156.5109 O.2     1  UNL1       -0.2748
     22 N         140.9255  143.2219  156.1229 N.am    1  UNL1       -0.2800
     23 C         142.2464  143.8120  156.5191 C.3     1  UNL1        0.0913
     24 C         142.9436  144.2672  155.2714 C.3     1  UNL1        0.0230
     25 C         142.0536  143.9583  154.1041 C.3     1  UNL1        0.0230
     26 C         140.8064  143.3123  154.6304 C.3     1  UNL1        0.0913
     27 C         139.6826  142.6981  155.4299 C.3     1  UNL1        0.0922
     28 N         139.9422  142.6761  156.9071 N.3     1  UNL1       -0.2687
     29 C         138.9199  142.0972  157.8398 C.3     1  UNL1        0.0897
     30 C         141.2241  143.2331  157.4517 C.3     1  UNL1        0.0922
     31 C         142.5792  139.0421  162.7475 C.3     1  UNL1        0.0238
     32 C         143.9052  139.5010  163.2779 C.3     1  UNL1        0.0044
     33 C         144.2637  139.2569  164.7137 C.3     1  UNL1        0.0003
     34 C         143.2963  138.5539  165.6193 C.3     1  UNL1        0.0000
     35 C         141.9704  138.0950  165.0889 C.3     1  UNL1        0.0003
     36 C         141.6119  138.3391  163.6530 C.3     1  UNL1        0.0044
     37 C         142.8273  136.2127  156.2233 C.2     1  UNL1        0.2640
     38 O         143.8316  136.6726  155.2085 O.2     1  UNL1       -0.2686
     39 N         141.9407  135.0406  155.9232 N.am    1  UNL1       -0.1852
     40 H         141.2816  134.7387  156.5893 H       1  UNL1        0.1765
     41 S         142.0583  134.3284  154.6083 S.O2    1  UNL1        0.0562
     42 O         143.2116  133.5319  155.1430 O.2     1  UNL1       -0.1544
     43 O         140.9051  135.1247  154.0737 O.2     1  UNL1       -0.1544
     44 C         142.1759  133.6161  153.2935 C.3     1  UNL1        0.1724
     45 C         142.0026  132.1275  153.2288 C.3     1  UNL1        0.0256
     46 C         143.0230  131.2835  152.5243 C.3     1  UNL1        0.0019
     47 C         140.8087  131.4830  153.8685 C.3     1  UNL1        0.0019
     48 C         138.7880  144.8614  165.3048 C.3     1  UNL1        0.2525
     49 O         140.1540  144.8171  164.6865 O.3     1  UNL1       -0.4714
@<TRIPOS>BOND
     1    48    49    1
     2    49     1    1
     3     1     2   ar
     4     2     3   ar
     5     3     4   ar
     6     4     5   ar
     7     5     6   ar
     8     5     7    1
     9     7     8    1
    10     8     9    1
    11     9    20    1
    12    20    21    2
    13    20    22   am
    14    22    23    1
    15    23    24    1
    16    24    25    1
    17    25    26    1
    18    26    27    1
    19    27    28    1
    20    28    29    1
    21    28    30    1
    22     9    10    1
    23    10    11    1
    24    11    12   ar
    25    12    13   ar
    26    13    31    1
    27    31    32    1
    28    32    33    1
    29    33    34    1
    30    34    35    1
    31    35    36    1
    32    13    14   ar
    33    14    15   ar
    34    15    16   ar
    35    16    17   ar
    36    17    37    1
    37    37    38    2
    38    37    39   am
    39    39    41    1
    40    41    42    2
    41    41    43    2
    42    41    44    1
    43    44    45    1
    44    45    46    1
    45    45    47    1
    46    17    18   ar
    47    18    19   ar
    48     6     1   ar
    49     9     7    1
    50    26    22    1
    51    19    11   ar
    52    12     4    1
    53    36    31    1
    54    19    14   ar
    55    30    23    1
    56    39    40    1
