@<TRIPOS>MOLECULE
*****
 35 39 0 0 0
SMALL
GASTEIGER

@<TRIPOS>ATOM
      1 N         138.8455  142.1548  160.6793 N.3     1  UNL1       -0.2698
      2 C         139.8676  141.1330  161.0807 C.3     1  UNL1        0.0938
      3 C         139.9785  140.7064  162.5146 C.3     1  UNL1        0.1081
      4 N         139.0675  141.3016  163.5469 N.pl3   1  UNL1       -0.3046
      5 C         138.0454  142.3235  163.1453 C.3     1  UNL1        0.1081
      6 C         137.9344  142.7501  161.7116 C.3     1  UNL1        0.0938
      7 C         139.1785  140.8750  164.9806 C.ar    1  UNL1        0.0481
      8 C         138.4505  139.6536  165.4582 C.ar    1  UNL1        0.0176
      9 C         138.5616  139.2271  166.8920 C.ar    1  UNL1        0.0388
     10 C         139.4007  140.0219  167.8481 C.ar    1  UNL1        0.1456
     11 O         139.6974  139.8467  169.3080 O.2     1  UNL1       -0.4489
     12 C         140.6088  140.9598  169.7326 C.ar    1  UNL1        0.1981
     13 C         140.8754  141.8230  168.5352 C.ar    1  UNL1        0.0453
     14 C         140.1287  141.2433  167.3705 C.ar    1  UNL1        0.0390
     15 C         140.0176  141.6699  165.9368 C.ar    1  UNL1        0.0177
     16 C         141.1574  141.1724  171.1124 C.2     1  UNL1        0.2775
     17 N         142.3807  140.4265  171.5563 N.am    1  UNL1       -0.3228
     18 O         140.4826  142.1309  172.0483 O.2     1  UNL1       -0.2670
     19 H         142.8236  139.7974  170.9421 H       1  UNL1        0.1453
     20 H         142.7408  140.5661  172.4619 H       1  UNL1        0.1453
     21 C         138.7344  142.5814  159.2455 C.3     1  UNL1        0.0722
     22 C         139.9739  142.8545  158.4462 C.3     1  UNL1        0.0177
     23 C         140.3653  144.2671  158.1281 C.3     1  UNL1        0.0061
     24 C         141.2803  145.0176  159.0497 C.3     1  UNL1        0.0277
     25 C         143.4822  143.2705  163.0266 C.2     1  UNL1        0.0507
     26 C         142.7833  143.6570  164.2963 C.2     1  UNL1        0.0078
     27 C         141.5416  144.4968  164.2432 C.2     1  UNL1        0.0191
     28 C         140.9988  144.9502  162.9204 C.2     1  UNL1        0.0774
     29 N         139.8030  145.7798  162.5572 N.2     1  UNL1       -0.2445
     30 C         139.7629  145.9060  161.0630 C.2     1  UNL1        0.0943
     31 C         140.9339  145.1545  160.5028 C.2     1  UNL1       -0.0052
     32 C         141.6977  144.5638  161.6507 C.2     1  UNL1       -0.0019
     33 C         142.9394  143.7239  161.7038 C.3     1  UNL1        0.0643
     34 N         145.9656  141.5908  163.1329 N.1     1  UNL1       -0.1911
     35 C         144.7239  142.4307  163.0797 C.1     1  UNL1        0.0964
@<TRIPOS>BOND
     1    34    35    3
     2    35    25    1
     3    25    26    2
     4    26    27    1
     5    27    28    2
     6    28    29    1
     7    29    30    2
     8    30    31    1
     9    31    24    1
    10    24    23    1
    11    23    22    1
    12    22    21    1
    13    21     1    1
    14     1     2    1
    15     2     3    1
    16     3     4    1
    17     4     7    1
    18     7     8   ar
    19     8     9   ar
    20     9    10   ar
    21    10    11   ar
    22    11    12   ar
    23    12    16    1
    24    16    17   am
    25    16    18    2
    26    12    13   ar
    27    13    14   ar
    28    14    15   ar
    29     4     5    1
    30     5     6    1
    31    31    32    2
    32    32    33    1
    33    33    25    1
    34    32    28    1
    35     6     1    1
    36    15     7   ar
    37    14    10   ar
    38    17    19    1
    39    17    20    1
@<TRIPOS>MOLECULE
*****
 35 39 0 0 0
SMALL
GASTEIGER

@<TRIPOS>ATOM
      1 N         139.7847  138.7916  160.7369 N.3     1  UNL1       -0.2698
      2 C         141.0085  138.7572  161.6035 C.3     1  UNL1        0.0938
      3 C         140.8818  138.9349  163.0876 C.3     1  UNL1        0.1081
      4 N         139.5313  139.1470  163.7050 N.pl3   1  UNL1       -0.3046
      5 C         138.3075  139.1814  162.8383 C.3     1  UNL1        0.1081
      6 C         138.4342  139.0037  161.3543 C.3     1  UNL1        0.0938
      7 C         139.4046  139.3246  165.1891 C.ar    1  UNL1        0.0481
      8 C         138.1477  138.9025  165.8904 C.ar    1  UNL1        0.0176
      9 C         138.0211  139.0802  167.3744 C.ar    1  UNL1        0.0388
     10 C         139.1515  139.6799  168.1571 C.ar    1  UNL1        0.1456
     11 O         139.3142  139.9764  169.6185 O.2     1  UNL1       -0.4489
     12 C         140.6717  140.5817  169.8203 C.ar    1  UNL1        0.1981
     13 C         141.3480  140.6594  168.4837 C.ar    1  UNL1        0.0453
     14 C         140.4084  140.1021  167.4558 C.ar    1  UNL1        0.0390
     15 C         140.5350  139.9244  165.9718 C.ar    1  UNL1        0.0177
     16 C         141.2512  141.0306  171.1290 C.2     1  UNL1        0.2775
     17 N         142.5527  140.4594  171.6083 N.am    1  UNL1       -0.3228
     18 O         140.5291  142.0507  171.9585 O.2     1  UNL1       -0.2670
     19 H         143.0267  139.7899  171.0638 H       1  UNL1        0.1453
     20 H         142.9331  140.7540  172.4672 H       1  UNL1        0.1453
     21 C         139.9113  138.6140  159.2529 C.3     1  UNL1        0.0722
     22 C         140.8407  139.4924  158.4690 C.3     1  UNL1        0.0177
     23 C         140.5708  140.9641  158.3628 C.3     1  UNL1        0.0061
     24 C         140.9442  141.8785  159.4916 C.3     1  UNL1        0.0277
     25 C         141.3340  142.9250  164.2318 C.2     1  UNL1        0.0507
     26 C         140.0227  143.3028  164.8543 C.2     1  UNL1        0.0078
     27 C         138.7759  143.3266  164.0207 C.2     1  UNL1        0.0191
     28 C         138.8404  142.9726  162.5645 C.2     1  UNL1        0.0774
     29 N         137.7861  142.9080  161.4996 N.2     1  UNL1       -0.2445
     30 C         138.4458  142.4903  160.2188 C.2     1  UNL1        0.0943
     31 C         139.9079  142.2968  160.4922 C.2     1  UNL1       -0.0052
     32 C         140.1518  142.5948  161.9420 C.2     1  UNL1       -0.0019
     33 C         141.3986  142.5710  162.7756 C.3     1  UNL1        0.0643
     34 N         143.8276  142.8774  165.8991 N.1     1  UNL1       -0.1911
     35 C         142.5808  142.9012  165.0654 C.1     1  UNL1        0.0964
@<TRIPOS>BOND
     1    34    35    3
     2    35    25    1
     3    25    26    2
     4    26    27    1
     5    27    28    2
     6    28    29    1
     7    29    30    2
     8    30    31    1
     9    31    24    1
    10    24    23    1
    11    23    22    1
    12    22    21    1
    13    21     1    1
    14     1     2    1
    15     2     3    1
    16     3     4    1
    17     4     7    1
    18     7     8   ar
    19     8     9   ar
    20     9    10   ar
    21    10    11   ar
    22    11    12   ar
    23    12    16    1
    24    16    17   am
    25    16    18    2
    26    12    13   ar
    27    13    14   ar
    28    14    15   ar
    29     4     5    1
    30     5     6    1
    31    31    32    2
    32    32    33    1
    33    33    25    1
    34    32    28    1
    35     6     1    1
    36    15     7   ar
    37    14    10   ar
    38    17    19    1
    39    17    20    1
@<TRIPOS>MOLECULE
*****
 35 39 0 0 0
SMALL
GASTEIGER

@<TRIPOS>ATOM
      1 N         138.5420  141.5862  160.7891 N.3     1  UNL1       -0.2698
      2 C         139.2064  142.5537  161.7233 C.3     1  UNL1        0.0938
      3 C         139.3477  142.2151  163.1778 C.3     1  UNL1        0.1081
      4 N         138.8246  140.9091  163.6981 N.pl3   1  UNL1       -0.3046
      5 C         138.1602  139.9416  162.7639 C.3     1  UNL1        0.1081
      6 C         138.0189  140.2802  161.3095 C.3     1  UNL1        0.0938
      7 C         138.9659  140.5706  165.1525 C.ar    1  UNL1        0.0481
      8 C         138.2050  139.4144  165.7309 C.ar    1  UNL1        0.0176
      9 C         138.3464  139.0760  167.1853 C.ar    1  UNL1        0.0388
     10 C         139.2486  139.8936  168.0614 C.ar    1  UNL1        0.1456
     11 O         139.5865  139.7994  169.5198 O.2     1  UNL1       -0.4489
     12 C         140.5561  140.8974  169.8428 C.ar    1  UNL1        0.1981
     13 C         140.8176  141.6701  168.5840 C.ar    1  UNL1        0.0453
     14 C         140.0094  141.0497  167.4830 C.ar    1  UNL1        0.0390
     15 C         139.8681  141.3882  166.0286 C.ar    1  UNL1        0.0177
     16 C         141.1586  141.1740  171.1883 C.2     1  UNL1        0.2775
     17 N         142.4280  140.4874  171.5972 N.am    1  UNL1       -0.3228
     18 O         140.4917  142.1372  172.1250 O.2     1  UNL1       -0.2670
     19 H         142.8658  139.8552  170.9824 H       1  UNL1        0.1453
     20 H         142.8234  140.6689  172.4803 H       1  UNL1        0.1453
     21 C         138.4007  141.9248  159.3347 C.3     1  UNL1        0.0722
     22 C         139.6047  141.9079  158.4403 C.3     1  UNL1        0.0177
     23 C         140.5588  140.7515  158.4886 C.3     1  UNL1        0.0061
     24 C         141.6292  140.7056  159.5384 C.3     1  UNL1        0.0277
     25 C         143.0664  140.9443  164.1853 C.2     1  UNL1        0.0507
     26 C         142.7952  139.6793  164.9443 C.2     1  UNL1        0.0078
     27 C         142.1448  138.5163  164.2556 C.2     1  UNL1        0.0191
     28 C         141.7655  138.6183  162.8080 C.2     1  UNL1        0.0774
     29 N         141.1163  137.6448  161.8695 N.2     1  UNL1       -0.2445
     30 C         140.9862  138.3082  160.5304 C.2     1  UNL1        0.0943
     31 C         141.5550  139.6917  160.6414 C.2     1  UNL1       -0.0052
     32 C         142.0367  139.8833  162.0490 C.2     1  UNL1       -0.0019
     33 C         142.6871  141.0464  162.7377 C.3     1  UNL1        0.0643
     34 N         144.3673  143.2704  165.5626 N.1     1  UNL1       -0.1911
     35 C         143.7169  142.1074  164.8740 C.1     1  UNL1        0.0964
@<TRIPOS>BOND
     1    34    35    3
     2    35    25    1
     3    25    26    2
     4    26    27    1
     5    27    28    2
     6    28    29    1
     7    29    30    2
     8    30    31    1
     9    31    24    1
    10    24    23    1
    11    23    22    1
    12    22    21    1
    13    21     1    1
    14     1     2    1
    15     2     3    1
    16     3     4    1
    17     4     7    1
    18     7     8   ar
    19     8     9   ar
    20     9    10   ar
    21    10    11   ar
    22    11    12   ar
    23    12    16    1
    24    16    17   am
    25    16    18    2
    26    12    13   ar
    27    13    14   ar
    28    14    15   ar
    29     4     5    1
    30     5     6    1
    31    31    32    2
    32    32    33    1
    33    33    25    1
    34    32    28    1
    35     6     1    1
    36    15     7   ar
    37    14    10   ar
    38    17    19    1
    39    17    20    1
@<TRIPOS>MOLECULE
*****
 35 39 0 0 0
SMALL
GASTEIGER

@<TRIPOS>ATOM
      1 N         141.9397  139.3838  160.4437 N.3     1  UNL1       -0.2698
      2 C         142.0409  138.1373  161.2719 C.3     1  UNL1        0.0938
      3 C         142.2326  138.2368  162.7564 C.3     1  UNL1        0.1081
      4 N         142.3230  139.5827  163.4125 N.pl3   1  UNL1       -0.3046
      5 C         142.2218  140.8291  162.5841 C.3     1  UNL1        0.1081
      6 C         142.0301  140.7297  161.0998 C.3     1  UNL1        0.0938
      7 C         142.5147  139.6820  164.8969 C.ar    1  UNL1        0.0481
      8 C         143.0380  138.5053  165.6659 C.ar    1  UNL1        0.0176
      9 C         143.2297  138.6047  167.1503 C.ar    1  UNL1        0.0388
     10 C         142.8981  139.8808  167.8656 C.ar    1  UNL1        0.1456
     11 O         142.9830  140.2725  169.3110 O.2     1  UNL1       -0.4489
     12 C         142.5122  141.6913  169.4353 C.ar    1  UNL1        0.1981
     13 C         142.1363  142.1765  168.0666 C.ar    1  UNL1        0.0453
     14 C         142.3748  141.0576  167.0965 C.ar    1  UNL1        0.0390
     15 C         142.1832  140.9581  165.6121 C.ar    1  UNL1        0.0177
     16 C         142.4314  142.4854  170.7052 C.2     1  UNL1        0.2775
     17 N         143.3734  143.6297  170.9354 N.am    1  UNL1       -0.3228
     18 O         141.4086  142.1351  171.7450 O.2     1  UNL1       -0.2670
     19 H         144.0447  143.8596  170.2530 H       1  UNL1        0.1453
     20 H         143.3204  144.1509  171.7690 H       1  UNL1        0.1453
     21 C         141.7480  139.2845  158.9593 C.3     1  UNL1        0.0722
     22 C         140.5678  139.9441  158.3097 C.3     1  UNL1        0.0177
     23 C         139.1760  139.5314  158.6873 C.3     1  UNL1        0.0061
     24 C         138.5044  140.1560  159.8742 C.3     1  UNL1        0.0277
     25 C         138.6232  141.9703  164.3920 C.2     1  UNL1        0.0507
     26 C         138.6573  140.9044  165.4468 C.2     1  UNL1        0.0078
     27 C         138.6524  139.4575  165.0512 C.2     1  UNL1        0.0191
     28 C         138.6134  139.0765  163.6010 C.2     1  UNL1        0.0774
     29 N         138.5998  137.7435  162.9133 N.2     1  UNL1       -0.2445
     30 C         138.5574  137.9856  161.4336 C.2     1  UNL1        0.0943
     31 C         138.5447  139.4683  161.2067 C.2     1  UNL1       -0.0052
     32 C         138.5793  140.1425  162.5462 C.2     1  UNL1       -0.0019
     33 C         138.5842  141.5894  162.9418 C.3     1  UNL1        0.0643
     34 N         138.6330  144.8641  165.1831 N.1     1  UNL1       -0.1911
     35 C         138.6281  143.4172  164.7876 C.1     1  UNL1        0.0964
@<TRIPOS>BOND
     1    34    35    3
     2    35    25    1
     3    25    26    2
     4    26    27    1
     5    27    28    2
     6    28    29    1
     7    29    30    2
     8    30    31    1
     9    31    24    1
    10    24    23    1
    11    23    22    1
    12    22    21    1
    13    21     1    1
    14     1     2    1
    15     2     3    1
    16     3     4    1
    17     4     7    1
    18     7     8   ar
    19     8     9   ar
    20     9    10   ar
    21    10    11   ar
    22    11    12   ar
    23    12    16    1
    24    16    17   am
    25    16    18    2
    26    12    13   ar
    27    13    14   ar
    28    14    15   ar
    29     4     5    1
    30     5     6    1
    31    31    32    2
    32    32    33    1
    33    33    25    1
    34    32    28    1
    35     6     1    1
    36    15     7   ar
    37    14    10   ar
    38    17    19    1
    39    17    20    1
@<TRIPOS>MOLECULE
*****
 35 39 0 0 0
SMALL
GASTEIGER

@<TRIPOS>ATOM
      1 N         139.1561  141.9912  160.6527 N.3     1  UNL1       -0.2698
      2 C         138.3253  141.9236  161.8998 C.3     1  UNL1        0.0938
      3 C         138.9891  141.9381  163.2449 C.3     1  UNL1        0.1081
      4 N         140.4836  142.0203  163.3429 N.pl3   1  UNL1       -0.3046
      5 C         141.3144  142.0880  162.0958 C.3     1  UNL1        0.1081
      6 C         140.6506  142.0734  160.7508 C.3     1  UNL1        0.0938
      7 C         141.1473  142.0349  164.6880 C.ar    1  UNL1        0.0481
      8 C         142.6096  142.3502  164.7995 C.ar    1  UNL1        0.0176
      9 C         143.2732  142.3647  166.1446 C.ar    1  UNL1        0.0388
     10 C         142.4747  142.0640  167.3782 C.ar    1  UNL1        0.1456
     11 O         142.8525  142.0042  168.8286 O.2     1  UNL1       -0.4489
     12 C         141.6237  141.6520  169.6135 C.ar    1  UNL1        0.1981
     13 C         140.4865  141.4941  168.6482 C.ar    1  UNL1        0.0453
     14 C         141.0124  141.7487  167.2667 C.ar    1  UNL1        0.0390
     15 C         140.3488  141.7341  165.9216 C.ar    1  UNL1        0.0177
     16 C         141.5458  141.4868  171.1024 C.2     1  UNL1        0.2775
     17 N         142.4816  140.5466  171.8026 N.am    1  UNL1       -0.3228
     18 O         140.5322  142.2617  171.8910 O.2     1  UNL1       -0.2670
     19 H         143.1470  140.0380  171.2850 H       1  UNL1        0.1453
     20 H         142.4305  140.4382  172.7797 H       1  UNL1        0.1453
     21 C         138.4924  141.9767  159.3077 C.3     1  UNL1        0.0722
     22 C         138.1563  140.6705  158.6513 C.3     1  UNL1        0.0177
     23 C         139.0818  139.4988  158.7950 C.3     1  UNL1        0.0061
     24 C         139.0412  138.6589  160.0371 C.3     1  UNL1        0.0277
     25 C         139.5512  138.3148  164.8680 C.2     1  UNL1        0.0507
     26 C         140.9833  138.1833  165.2943 C.2     1  UNL1        0.0078
     27 C         142.0741  138.1692  164.2647 C.2     1  UNL1        0.0191
     28 C         141.7327  138.2866  162.8088 C.2     1  UNL1        0.0774
     29 N         142.5867  138.3027  161.5758 N.2     1  UNL1       -0.2445
     30 C         141.6824  138.4441  160.3874 C.2     1  UNL1        0.0943
     31 C         140.2695  138.5154  160.8860 C.2     1  UNL1       -0.0052
     32 C         140.3006  138.4181  162.3825 C.2     1  UNL1       -0.0019
     33 C         139.2099  138.4322  163.4121 C.3     1  UNL1        0.0643
     34 N         137.3697  138.3430  166.9272 N.1     1  UNL1       -0.1911
     35 C         138.4605  138.3289  165.8976 C.1     1  UNL1        0.0964
@<TRIPOS>BOND
     1    34    35    3
     2    35    25    1
     3    25    26    2
     4    26    27    1
     5    27    28    2
     6    28    29    1
     7    29    30    2
     8    30    31    1
     9    31    24    1
    10    24    23    1
    11    23    22    1
    12    22    21    1
    13    21     1    1
    14     1     2    1
    15     2     3    1
    16     3     4    1
    17     4     7    1
    18     7     8   ar
    19     8     9   ar
    20     9    10   ar
    21    10    11   ar
    22    11    12   ar
    23    12    16    1
    24    16    17   am
    25    16    18    2
    26    12    13   ar
    27    13    14   ar
    28    14    15   ar
    29     4     5    1
    30     5     6    1
    31    31    32    2
    32    32    33    1
    33    33    25    1
    34    32    28    1
    35     6     1    1
    36    15     7   ar
    37    14    10   ar
    38    17    19    1
    39    17    20    1
@<TRIPOS>MOLECULE
*****
 35 39 0 0 0
SMALL
GASTEIGER

@<TRIPOS>ATOM
      1 N         138.8636  140.9540  160.6232 N.3     1  UNL1       -0.2698
      2 C         137.7865  141.5007  161.5126 C.3     1  UNL1        0.0938
      3 C         137.8544  141.2809  162.9949 C.3     1  UNL1        0.1081
      4 N         138.9994  140.5144  163.5878 N.pl3   1  UNL1       -0.3046
      5 C         140.0765  139.9677  162.6984 C.3     1  UNL1        0.1081
      6 C         140.0086  140.1876  161.2162 C.3     1  UNL1        0.0938
      7 C         139.0672  140.2946  165.0700 C.ar    1  UNL1        0.0481
      8 C         138.1810  139.2725  165.7180 C.ar    1  UNL1        0.0176
      9 C         138.2488  139.0528  167.2002 C.ar    1  UNL1        0.0388
     10 C         139.2028  139.8552  168.0345 C.ar    1  UNL1        0.1456
     11 O         139.4901  139.8592  169.5068 O.2     1  UNL1       -0.4489
     12 C         140.5538  140.8839  169.7686 C.ar    1  UNL1        0.1981
     13 C         140.9240  141.5131  168.4583 C.ar    1  UNL1        0.0453
     14 C         140.0890  140.8773  167.3866 C.ar    1  UNL1        0.0390
     15 C         140.0212  141.0970  165.9043 C.ar    1  UNL1        0.0177
     16 C         141.1437  141.2203  171.1061 C.2     1  UNL1        0.2775
     17 N         142.4502  140.6131  171.5237 N.am    1  UNL1       -0.3228
     18 O         140.4272  142.1639  172.0260 O.2     1  UNL1       -0.2670
     19 H         142.9205  139.9937  170.9200 H       1  UNL1        0.1453
     20 H         142.8374  140.8338  172.4015 H       1  UNL1        0.1453
     21 C         138.7958  141.1738  159.1410 C.3     1  UNL1        0.0722
     22 C         138.4127  142.5190  158.5990 C.3     1  UNL1        0.0177
     23 C         139.4700  143.4460  158.0766 C.3     1  UNL1        0.0061
     24 C         140.0758  144.4782  158.9807 C.3     1  UNL1        0.0277
     25 C         140.4542  144.3887  163.8351 C.2     1  UNL1        0.0507
     26 C         141.8113  143.9561  164.3054 C.2     1  UNL1        0.0078
     27 C         142.8753  143.6080  163.3071 C.2     1  UNL1        0.0191
     28 C         142.5822  143.6924  161.8384 C.2     1  UNL1        0.0774
     29 N         143.4248  143.4140  160.6291 N.2     1  UNL1       -0.2445
     30 C         142.5885  143.6745  159.4114 C.2     1  UNL1        0.0943
     31 C         141.2290  144.1138  159.8681 C.2     1  UNL1       -0.0052
     32 C         141.2251  144.1250  161.3682 C.2     1  UNL1       -0.0019
     33 C         140.1611  144.4731  162.3665 C.3     1  UNL1        0.0643
     34 N         138.3262  145.0849  165.8319 N.1     1  UNL1       -0.1911
     35 C         139.3902  144.7368  164.8335 C.1     1  UNL1        0.0964
@<TRIPOS>BOND
     1    34    35    3
     2    35    25    1
     3    25    26    2
     4    26    27    1
     5    27    28    2
     6    28    29    1
     7    29    30    2
     8    30    31    1
     9    31    24    1
    10    24    23    1
    11    23    22    1
    12    22    21    1
    13    21     1    1
    14     1     2    1
    15     2     3    1
    16     3     4    1
    17     4     7    1
    18     7     8   ar
    19     8     9   ar
    20     9    10   ar
    21    10    11   ar
    22    11    12   ar
    23    12    16    1
    24    16    17   am
    25    16    18    2
    26    12    13   ar
    27    13    14   ar
    28    14    15   ar
    29     4     5    1
    30     5     6    1
    31    31    32    2
    32    32    33    1
    33    33    25    1
    34    32    28    1
    35     6     1    1
    36    15     7   ar
    37    14    10   ar
    38    17    19    1
    39    17    20    1
@<TRIPOS>MOLECULE
*****
 35 39 0 0 0
SMALL
GASTEIGER

@<TRIPOS>ATOM
      1 N         139.3681  140.0482  160.9069 N.3     1  UNL1       -0.2698
      2 C         140.8651  140.1330  160.8676 C.3     1  UNL1        0.0938
      3 C         141.6235  140.5757  162.0838 C.3     1  UNL1        0.1081
      4 N         140.8847  140.9336  163.3393 N.pl3   1  UNL1       -0.3046
      5 C         139.3876  140.8488  163.3785 C.3     1  UNL1        0.1081
      6 C         138.6293  140.4061  162.1624 C.3     1  UNL1        0.0938
      7 C         141.6431  141.3762  164.5553 C.ar    1  UNL1        0.0481
      8 C         143.1069  141.6880  164.4541 C.ar    1  UNL1        0.0176
      9 C         143.8652  142.1306  165.6703 C.ar    1  UNL1        0.0388
     10 C         143.1598  142.2615  166.9876 C.ar    1  UNL1        0.1456
     11 O         143.6412  142.6728  168.3474 O.2     1  UNL1       -0.4489
     12 C         142.4749  142.6152  169.2890 C.ar    1  UNL1        0.1981
     13 C         141.2727  142.1684  168.5111 C.ar    1  UNL1        0.0453
     14 C         141.6960  141.9498  167.0888 C.ar    1  UNL1        0.0390
     15 C         140.9377  141.5072  165.8726 C.ar    1  UNL1        0.0177
     16 C         142.5055  142.9464  170.7516 C.2     1  UNL1        0.2775
     17 N         143.4037  144.0372  171.2550 N.am    1  UNL1       -0.3228
     18 O         141.6379  142.1868  171.7109 O.2     1  UNL1       -0.2670
     19 H         143.9732  144.5357  170.6254 H       1  UNL1        0.1453
     20 H         143.4238  144.2545  172.2150 H       1  UNL1        0.1453
     21 C         138.6097  139.6056  159.6908 C.3     1  UNL1        0.0722
     22 C         137.9869  140.6246  158.7833 C.3     1  UNL1        0.0177
     23 C         138.8065  141.7699  158.2671 C.3     1  UNL1        0.0061
     24 C         138.9300  143.0278  159.0747 C.3     1  UNL1        0.0277
     25 C         140.1390  144.6541  163.5030 C.2     1  UNL1        0.0507
     26 C         141.6061  144.9345  163.6397 C.2     1  UNL1        0.0078
     27 C         142.5249  144.7063  162.4762 C.2     1  UNL1        0.0191
     28 C         141.9766  144.1976  161.1760 C.2     1  UNL1        0.0774
     29 N         142.6333  143.8797  159.8654 N.2     1  UNL1       -0.2445
     30 C         141.5720  143.4028  158.9187 C.2     1  UNL1        0.0943
     31 C         140.2593  143.4260  159.6442 C.2     1  UNL1       -0.0052
     32 C         140.5094  143.9172  161.0393 C.2     1  UNL1       -0.0019
     33 C         139.5906  144.1455  162.2028 C.3     1  UNL1        0.0643
     34 N         138.3014  145.1105  165.8300 N.1     1  UNL1       -0.1911
     35 C         139.2202  144.8823  164.6665 C.1     1  UNL1        0.0964
@<TRIPOS>BOND
     1    34    35    3
     2    35    25    1
     3    25    26    2
     4    26    27    1
     5    27    28    2
     6    28    29    1
     7    29    30    2
     8    30    31    1
     9    31    24    1
    10    24    23    1
    11    23    22    1
    12    22    21    1
    13    21     1    1
    14     1     2    1
    15     2     3    1
    16     3     4    1
    17     4     7    1
    18     7     8   ar
    19     8     9   ar
    20     9    10   ar
    21    10    11   ar
    22    11    12   ar
    23    12    16    1
    24    16    17   am
    25    16    18    2
    26    12    13   ar
    27    13    14   ar
    28    14    15   ar
    29     4     5    1
    30     5     6    1
    31    31    32    2
    32    32    33    1
    33    33    25    1
    34    32    28    1
    35     6     1    1
    36    15     7   ar
    37    14    10   ar
    38    17    19    1
    39    17    20    1
@<TRIPOS>MOLECULE
*****
 35 39 0 0 0
SMALL
GASTEIGER

@<TRIPOS>ATOM
      1 N         141.4498  139.2687  160.2378 N.3     1  UNL1       -0.2698
      2 C         141.2490  138.3574  161.4123 C.3     1  UNL1        0.0938
      3 C         141.5384  138.8478  162.8001 C.3     1  UNL1        0.1081
      4 N         142.0285  140.2493  163.0134 N.pl3   1  UNL1       -0.3046
      5 C         142.2293  141.1605  161.8389 C.3     1  UNL1        0.1081
      6 C         141.9399  140.6702  160.4512 C.3     1  UNL1        0.0938
      7 C         142.3178  140.7395  164.4012 C.ar    1  UNL1        0.0481
      8 C         142.8145  142.1388  164.6140 C.ar    1  UNL1        0.0176
      9 C         143.1038  142.6290  166.0018 C.ar    1  UNL1        0.0388
     10 C         142.8965  141.7199  167.1768 C.ar    1  UNL1        0.1456
     11 O         143.0950  141.9223  168.6497 O.2     1  UNL1       -0.4489
     12 C         142.7210  140.6480  169.3472 C.ar    1  UNL1        0.1981
     13 C         142.2914  139.6581  168.3054 C.ar    1  UNL1        0.0453
     14 C         142.3998  140.3206  166.9639 C.ar    1  UNL1        0.0390
     15 C         142.1105  139.8304  165.5762 C.ar    1  UNL1        0.0177
     16 C         142.7684  140.4062  170.8268 C.2     1  UNL1        0.2775
     17 N         143.8653  139.5692  171.4153 N.am    1  UNL1       -0.3228
     18 O         141.7188  141.0013  171.7180 O.2     1  UNL1       -0.2670
     19 H         144.5542  139.1786  170.8304 H       1  UNL1        0.1453
     20 H         143.8964  139.4105  172.3864 H       1  UNL1        0.1453
     21 C         141.1605  138.7785  158.8501 C.3     1  UNL1        0.0722
     22 C         139.7421  138.5701  158.4087 C.3     1  UNL1        0.0177
     23 C         138.8009  139.7357  158.3341 C.3     1  UNL1        0.0061
     24 C         137.9732  140.1090  159.5281 C.3     1  UNL1        0.0277
     25 C         138.4499  140.5678  164.3529 C.2     1  UNL1        0.0507
     26 C         138.8590  141.9497  164.7686 C.2     1  UNL1        0.0078
     27 C         139.0747  143.0119  163.7317 C.2     1  UNL1        0.0191
     28 C         138.8814  142.6922  162.2790 C.2     1  UNL1        0.0774
     29 N         139.0201  143.5269  161.0405 N.2     1  UNL1       -0.2445
     30 C         138.6967  142.6608  159.8592 C.2     1  UNL1        0.0943
     31 C         138.3582  141.2909  160.3677 C.2     1  UNL1       -0.0052
     32 C         138.4723  141.3103  161.8633 C.2     1  UNL1       -0.0019
     33 C         138.2566  140.2481  162.9002 C.3     1  UNL1        0.0643
     34 N         138.0185  138.4434  166.4267 N.1     1  UNL1       -0.1911
     35 C         138.2342  139.5056  165.3898 C.1     1  UNL1        0.0964
@<TRIPOS>BOND
     1    34    35    3
     2    35    25    1
     3    25    26    2
     4    26    27    1
     5    27    28    2
     6    28    29    1
     7    29    30    2
     8    30    31    1
     9    31    24    1
    10    24    23    1
    11    23    22    1
    12    22    21    1
    13    21     1    1
    14     1     2    1
    15     2     3    1
    16     3     4    1
    17     4     7    1
    18     7     8   ar
    19     8     9   ar
    20     9    10   ar
    21    10    11   ar
    22    11    12   ar
    23    12    16    1
    24    16    17   am
    25    16    18    2
    26    12    13   ar
    27    13    14   ar
    28    14    15   ar
    29     4     5    1
    30     5     6    1
    31    31    32    2
    32    32    33    1
    33    33    25    1
    34    32    28    1
    35     6     1    1
    36    15     7   ar
    37    14    10   ar
    38    17    19    1
    39    17    20    1
@<TRIPOS>MOLECULE
*****
 35 39 0 0 0
SMALL
GASTEIGER

@<TRIPOS>ATOM
      1 N         139.2022  139.2681  160.6241 N.3     1  UNL1       -0.2698
      2 C         138.7049  140.5111  161.3006 C.3     1  UNL1        0.0938
      3 C         138.6845  140.5929  162.7983 C.3     1  UNL1        0.1081
      4 N         139.1614  139.4318  163.6194 N.pl3   1  UNL1       -0.3046
      5 C         139.6588  138.1888  162.9429 C.3     1  UNL1        0.1081
      6 C         139.6792  138.1070  161.4453 C.3     1  UNL1        0.0938
      7 C         139.1410  139.5138  165.1171 C.ar    1  UNL1        0.0481
      8 C         137.9913  138.9312  165.8844 C.ar    1  UNL1        0.0176
      9 C         137.9709  139.0131  167.3820 C.ar    1  UNL1        0.0388
     10 C         139.1002  139.6776  168.1122 C.ar    1  UNL1        0.1456
     11 O         139.3538  139.9075  169.5727 O.2     1  UNL1       -0.4489
     12 C         140.6601  140.6321  169.7079 C.ar    1  UNL1        0.1981
     13 C         141.2140  140.8502  168.3310 C.ar    1  UNL1        0.0453
     14 C         140.2498  140.2602  167.3449 C.ar    1  UNL1        0.0390
     15 C         140.2702  140.1783  165.8473 C.ar    1  UNL1        0.0177
     16 C         141.3003  141.0631  170.9941 C.2     1  UNL1        0.2775
     17 N         142.6124  140.4700  171.4145 N.am    1  UNL1       -0.3228
     18 O         140.6284  142.0871  171.8601 O.2     1  UNL1       -0.2670
     19 H         143.0534  139.7979  170.8461 H       1  UNL1        0.1453
     20 H         143.0325  140.7529  172.2587 H       1  UNL1        0.1453
     21 C         139.2227  139.1862  159.1265 C.3     1  UNL1        0.0722
     22 C         139.8926  140.2631  158.3256 C.3     1  UNL1        0.0177
     23 C         141.3857  140.4030  158.3580 C.3     1  UNL1        0.0061
     24 C         142.1567  139.9389  159.5580 C.3     1  UNL1        0.0277
     25 C         144.1788  139.9466  163.9883 C.2     1  UNL1        0.0507
     26 C         145.2245  141.0098  164.1491 C.2     1  UNL1        0.0078
     27 C         145.5435  141.9270  163.0059 C.2     1  UNL1        0.0191
     28 C         144.8168  141.7810  161.7019 C.2     1  UNL1        0.0774
     29 N         144.9161  142.5330  160.4078 N.2     1  UNL1       -0.2445
     30 C         143.9317  141.9345  159.4472 C.2     1  UNL1        0.0943
     31 C         143.2240  140.8126  160.1475 C.2     1  UNL1       -0.0052
     32 C         143.7711  140.7178  161.5411 C.2     1  UNL1       -0.0019
     33 C         143.4521  139.8005  162.6843 C.3     1  UNL1        0.0643
     34 N         143.5407  138.1121  166.2747 N.1     1  UNL1       -0.1911
     35 C         143.8597  139.0293  165.1315 C.1     1  UNL1        0.0964
@<TRIPOS>BOND
     1    34    35    3
     2    35    25    1
     3    25    26    2
     4    26    27    1
     5    27    28    2
     6    28    29    1
     7    29    30    2
     8    30    31    1
     9    31    24    1
    10    24    23    1
    11    23    22    1
    12    22    21    1
    13    21     1    1
    14     1     2    1
    15     2     3    1
    16     3     4    1
    17     4     7    1
    18     7     8   ar
    19     8     9   ar
    20     9    10   ar
    21    10    11   ar
    22    11    12   ar
    23    12    16    1
    24    16    17   am
    25    16    18    2
    26    12    13   ar
    27    13    14   ar
    28    14    15   ar
    29     4     5    1
    30     5     6    1
    31    31    32    2
    32    32    33    1
    33    33    25    1
    34    32    28    1
    35     6     1    1
    36    15     7   ar
    37    14    10   ar
    38    17    19    1
    39    17    20    1
