@<TRIPOS>MOLECULE
*****
 27 28 0 0 0
SMALL
GASTEIGER

@<TRIPOS>ATOM
      1 C         142.3095  142.8795  164.6612 C.ar    1  UNL1        0.1409
      2 N         141.4202  144.0452  164.3446 N.ar    1  UNL1       -0.1986
      3 C         141.8286  145.0372  163.2961 C.ar    1  UNL1        0.2181
      4 N         143.1264  144.8634  162.5643 N.ar    1  UNL1       -0.2120
      5 C         144.0157  143.6977  162.8809 C.ar    1  UNL1        0.1091
      6 C         143.6073  142.7058  163.9293 C.ar    1  UNL1        0.1040
      7 C         144.4967  141.5401  164.2458 C.2     1  UNL1        0.2470
      8 N         145.9841  141.6708  164.1025 N.am    1  UNL1       -0.3252
      9 O         143.8986  140.2436  164.7058 O.2     1  UNL1       -0.2702
     10 H         146.3766  142.5218  163.8007 H       1  UNL1        0.1453
     11 H         146.5678  140.9058  164.3103 H       1  UNL1        0.1453
     12 N         141.9011  141.8876  165.7096 N.pl3   1  UNL1       -0.2977
     13 H         141.5134  141.0224  165.4442 H       1  UNL1        0.1536
     14 C         139.8877  143.2384  170.3054 C.3     1  UNL1        0.0311
     15 C         141.0767  142.8892  169.4602 C.ar    1  UNL1       -0.0206
     16 C         142.4479  142.8662  170.0677 C.ar    1  UNL1       -0.0042
     17 C         143.6369  142.5170  169.2225 C.ar    1  UNL1        0.0009
     18 C         143.4547  142.1908  167.7698 C.ar    1  UNL1        0.0146
     19 C         142.0834  142.2138  167.1623 C.ar    1  UNL1        0.0491
     20 C         140.8944  142.5630  168.0075 C.ar    1  UNL1        0.0104
     21 N         140.9393  146.2029  162.9795 N.pl3   1  UNL1       -0.3016
     22 H         140.9845  147.0196  163.5274 H       1  UNL1        0.1497
     23 C         139.9811  146.1242  161.8281 C.3     1  UNL1        0.1064
     24 C         140.3154  145.2857  160.6301 C.3     1  UNL1        0.0867
     25 N         141.5787  145.5430  159.8634 N.3     1  UNL1       -0.3197
     26 H         141.5267  146.4604  159.4205 H       1  UNL1        0.1189
     27 H         141.6940  144.8258  159.1474 H       1  UNL1        0.1189
@<TRIPOS>BOND
     1    14    15    1
     2    15    16   ar
     3    16    17   ar
     4    17    18   ar
     5    18    19   ar
     6    19    12    1
     7    12     1    1
     8     1     2   ar
     9     2     3   ar
    10     3    21    1
    11    21    23    1
    12    23    24    1
    13    24    25    1
    14     3     4   ar
    15     4     5   ar
    16     5     6   ar
    17     6     7    1
    18     7     8   am
    19     7     9    2
    20    19    20   ar
    21    20    15   ar
    22     6     1   ar
    23    12    13    1
    24    21    22    1
    25    25    26    1
    26    25    27    1
    27     8    10    1
    28     8    11    1
@<TRIPOS>MOLECULE
*****
 27 28 0 0 0
SMALL
GASTEIGER

@<TRIPOS>ATOM
      1 C         139.7994  141.2239  165.8870 C.ar    1  UNL1        0.1409
      2 N         140.1403  141.0496  167.3373 N.ar    1  UNL1       -0.1986
      3 C         139.4578  139.9861  168.1456 C.ar    1  UNL1        0.2181
      4 N         138.4344  139.0970  167.5035 N.ar    1  UNL1       -0.2120
      5 C         138.0935  139.2714  166.0532 C.ar    1  UNL1        0.1091
      6 C         138.7760  140.3348  165.2449 C.ar    1  UNL1        0.1040
      7 C         138.4351  140.5091  163.7946 C.2     1  UNL1        0.2470
      8 N         137.0595  140.9548  163.3958 N.am    1  UNL1       -0.3252
      9 O         139.4699  140.2377  162.7431 O.2     1  UNL1       -0.2702
     10 H         136.3804  141.1329  164.0860 H       1  UNL1        0.1453
     11 H         136.8358  141.0692  162.4439 H       1  UNL1        0.1453
     12 N         140.4819  142.2873  165.0787 N.pl3   1  UNL1       -0.2977
     13 H         139.9594  143.0344  164.7069 H       1  UNL1        0.1536
     14 C         144.7931  139.4683  164.3954 C.3     1  UNL1        0.0311
     15 C         144.1160  140.8031  164.4952 C.ar    1  UNL1       -0.0206
     16 C         144.9173  142.0630  164.3533 C.ar    1  UNL1       -0.0042
     17 C         144.2403  143.3978  164.4531 C.ar    1  UNL1        0.0009
     18 C         142.7618  143.4726  164.6949 C.ar    1  UNL1        0.0146
     19 C         141.9604  142.2126  164.8369 C.ar    1  UNL1        0.0491
     20 C         142.6375  140.8778  164.7371 C.ar    1  UNL1        0.0104
     21 N         139.7987  139.8118  169.5959 N.pl3   1  UNL1       -0.3016
     22 H         139.2231  139.2607  170.1740 H       1  UNL1        0.1497
     23 C         141.0165  140.4771  170.1653 C.3     1  UNL1        0.1064
     24 C         140.8674  141.6370  171.1047 C.3     1  UNL1        0.0867
     25 N         142.0621  142.1610  171.8450 N.3     1  UNL1       -0.3197
     26 H         142.3940  141.4527  172.4997 H       1  UNL1        0.1189
     27 H         141.8016  143.0030  172.3583 H       1  UNL1        0.1189
@<TRIPOS>BOND
     1    14    15    1
     2    15    16   ar
     3    16    17   ar
     4    17    18   ar
     5    18    19   ar
     6    19    12    1
     7    12     1    1
     8     1     2   ar
     9     2     3   ar
    10     3    21    1
    11    21    23    1
    12    23    24    1
    13    24    25    1
    14     3     4   ar
    15     4     5   ar
    16     5     6   ar
    17     6     7    1
    18     7     8   am
    19     7     9    2
    20    19    20   ar
    21    20    15   ar
    22     6     1   ar
    23    12    13    1
    24    21    22    1
    25    25    26    1
    26    25    27    1
    27     8    10    1
    28     8    11    1
@<TRIPOS>MOLECULE
*****
 27 28 0 0 0
SMALL
GASTEIGER

@<TRIPOS>ATOM
      1 C         139.0910  141.8305  164.8325 C.ar    1  UNL1        0.1409
      2 N         139.3232  140.3489  164.8641 N.ar    1  UNL1       -0.1986
      3 C         138.5840  139.4535  163.9144 C.ar    1  UNL1        0.2181
      4 N         137.6126  140.0397  162.9332 N.ar    1  UNL1       -0.2120
      5 C         137.3804  141.5212  162.9016 C.ar    1  UNL1        0.1091
      6 C         138.1195  142.4166  163.8513 C.ar    1  UNL1        0.1040
      7 C         137.8873  143.8982  163.8197 C.2     1  UNL1        0.2470
      8 N         137.6098  144.5863  162.5160 N.am    1  UNL1       -0.3252
      9 O         137.9326  144.6918  165.0918 O.2     1  UNL1       -0.2702
     10 H         137.5800  144.0655  161.6811 H       1  UNL1        0.1453
     11 H         137.4573  145.5587  162.4953 H       1  UNL1        0.1453
     12 N         139.8301  142.7259  165.7821 N.pl3   1  UNL1       -0.2977
     13 H         139.3523  143.1514  166.5304 H       1  UNL1        0.1536
     14 C         143.7102  144.9954  163.1755 C.3     1  UNL1        0.0311
     15 C         143.2374  144.1078  164.2884 C.ar    1  UNL1       -0.0206
     16 C         144.2317  143.4674  165.2109 C.ar    1  UNL1       -0.0042
     17 C         143.7589  142.5798  166.3238 C.ar    1  UNL1        0.0009
     18 C         142.2917  142.3326  166.5142 C.ar    1  UNL1        0.0146
     19 C         141.2974  142.9731  165.5917 C.ar    1  UNL1        0.0491
     20 C         141.7702  143.8607  164.4788 C.ar    1  UNL1        0.0104
     21 N         138.8162  137.9719  163.9460 N.pl3   1  UNL1       -0.3016
     22 H         138.2063  137.3677  163.4641 H       1  UNL1        0.1497
     23 C         139.9777  137.4110  164.7118 C.3     1  UNL1        0.1064
     24 C         141.3186  137.2814  164.0522 C.3     1  UNL1        0.0867
     25 N         141.4070  136.9733  162.5868 N.3     1  UNL1       -0.3197
     26 H         141.0404  136.0374  162.4135 H       1  UNL1        0.1189
     27 H         142.3813  137.0175  162.2883 H       1  UNL1        0.1189
@<TRIPOS>BOND
     1    14    15    1
     2    15    16   ar
     3    16    17   ar
     4    17    18   ar
     5    18    19   ar
     6    19    12    1
     7    12     1    1
     8     1     2   ar
     9     2     3   ar
    10     3    21    1
    11    21    23    1
    12    23    24    1
    13    24    25    1
    14     3     4   ar
    15     4     5   ar
    16     5     6   ar
    17     6     7    1
    18     7     8   am
    19     7     9    2
    20    19    20   ar
    21    20    15   ar
    22     6     1   ar
    23    12    13    1
    24    21    22    1
    25    25    26    1
    26    25    27    1
    27     8    10    1
    28     8    11    1
@<TRIPOS>MOLECULE
*****
 27 28 0 0 0
SMALL
GASTEIGER

@<TRIPOS>ATOM
      1 C         139.8856  140.3568  166.2291 C.ar    1  UNL1        0.1409
      2 N         139.9803  140.6246  167.7020 N.ar    1  UNL1       -0.1986
      3 C         139.0449  139.9359  168.6512 C.ar    1  UNL1        0.2181
      4 N         138.0149  138.9794  168.1274 N.ar    1  UNL1       -0.2120
      5 C         137.9203  138.7116  166.6546 C.ar    1  UNL1        0.1091
      6 C         138.8556  139.4002  165.7054 C.ar    1  UNL1        0.1040
      7 C         138.7609  139.1324  164.2326 C.2     1  UNL1        0.2470
      8 N         138.8291  137.7243  163.7204 N.am    1  UNL1       -0.3252
      9 O         138.5981  140.2729  163.2719 O.2     1  UNL1       -0.2702
     10 H         138.9360  136.9758  164.3510 H       1  UNL1        0.1453
     11 H         138.7670  137.5485  162.7537 H       1  UNL1        0.1453
     12 N         140.8210  141.0454  165.2800 N.pl3   1  UNL1       -0.2977
     13 H         140.5227  141.8440  164.7876 H       1  UNL1        0.1536
     14 C         145.6628  141.6753  163.5023 C.3     1  UNL1        0.0311
     15 C         144.6316  140.8322  164.1922 C.ar    1  UNL1       -0.0206
     16 C         144.9903  139.4609  164.6831 C.ar    1  UNL1       -0.0042
     17 C         143.9591  138.6178  165.3730 C.ar    1  UNL1        0.0009
     18 C         142.5694  139.1459  165.5720 C.ar    1  UNL1        0.0146
     19 C         142.2108  140.5172  165.0811 C.ar    1  UNL1        0.0491
     20 C         143.2419  141.3603  164.3912 C.ar    1  UNL1        0.0104
     21 N         139.1395  140.2037  170.1240 N.pl3   1  UNL1       -0.3016
     22 H         138.6543  139.6306  170.7607 H       1  UNL1        0.1497
     23 C         139.9735  141.3447  170.6268 C.3     1  UNL1        0.1064
     24 C         141.3646  141.0929  171.1283 C.3     1  UNL1        0.0867
     25 N         142.0998  142.1680  171.8722 N.3     1  UNL1       -0.3197
     26 H         142.2836  142.9509  171.2447 H       1  UNL1        0.1189
     27 H         142.9836  141.7969  172.2208 H       1  UNL1        0.1189
@<TRIPOS>BOND
     1    14    15    1
     2    15    16   ar
     3    16    17   ar
     4    17    18   ar
     5    18    19   ar
     6    19    12    1
     7    12     1    1
     8     1     2   ar
     9     2     3   ar
    10     3    21    1
    11    21    23    1
    12    23    24    1
    13    24    25    1
    14     3     4   ar
    15     4     5   ar
    16     5     6   ar
    17     6     7    1
    18     7     8   am
    19     7     9    2
    20    19    20   ar
    21    20    15   ar
    22     6     1   ar
    23    12    13    1
    24    21    22    1
    25    25    26    1
    26    25    27    1
    27     8    10    1
    28     8    11    1
@<TRIPOS>MOLECULE
*****
 27 28 0 0 0
SMALL
GASTEIGER

@<TRIPOS>ATOM
      1 C         142.8061  143.1014  164.6737 C.ar    1  UNL1        0.1409
      2 N         141.8228  144.1978  164.3892 N.ar    1  UNL1       -0.1986
      3 C         141.8651  144.9210  163.0756 C.ar    1  UNL1        0.2181
      4 N         142.8906  144.5477  162.0466 N.ar    1  UNL1       -0.2120
      5 C         143.8739  143.4512  162.3311 C.ar    1  UNL1        0.1091
      6 C         143.8317  142.7281  163.6445 C.ar    1  UNL1        0.1040
      7 C         144.8150  141.6317  163.9290 C.2     1  UNL1        0.2470
      8 N         146.2658  141.8210  163.5987 N.am    1  UNL1       -0.3252
      9 O         144.3474  140.3458  164.5438 O.2     1  UNL1       -0.2702
     10 H         146.5727  142.6650  163.1952 H       1  UNL1        0.1453
     11 H         146.9112  141.1014  163.7854 H       1  UNL1        0.1453
     12 N         142.7639  142.3782  165.9871 N.pl3   1  UNL1       -0.2977
     13 H         143.5065  142.4747  166.6262 H       1  UNL1        0.1536
     14 C         139.3892  140.5377  169.4834 C.3     1  UNL1        0.0311
     15 C         139.9029  140.5878  168.0750 C.ar    1  UNL1       -0.0206
     16 C         139.2431  139.7678  167.0063 C.ar    1  UNL1       -0.0042
     17 C         139.7568  139.8178  165.5979 C.ar    1  UNL1        0.0009
     18 C         140.9304  140.6880  165.2582 C.ar    1  UNL1        0.0146
     19 C         141.5903  141.5080  166.3268 C.ar    1  UNL1        0.0491
     20 C         141.0765  141.4579  167.7352 C.ar    1  UNL1        0.0104
     21 N         140.8818  146.0174  162.7912 N.pl3   1  UNL1       -0.3016
     22 H         141.1047  146.9494  163.0171 H       1  UNL1        0.1497
     23 C         139.5588  145.6939  162.1625 C.3     1  UNL1        0.1064
     24 C         138.6057  144.7663  162.8561 C.3     1  UNL1        0.0867
     25 N         137.7608  143.8217  162.0538 N.3     1  UNL1       -0.3197
     26 H         137.0997  144.3537  161.4878 H       1  UNL1        0.1189
     27 H         137.2489  143.2043  162.6840 H       1  UNL1        0.1189
@<TRIPOS>BOND
     1    14    15    1
     2    15    16   ar
     3    16    17   ar
     4    17    18   ar
     5    18    19   ar
     6    19    12    1
     7    12     1    1
     8     1     2   ar
     9     2     3   ar
    10     3    21    1
    11    21    23    1
    12    23    24    1
    13    24    25    1
    14     3     4   ar
    15     4     5   ar
    16     5     6   ar
    17     6     7    1
    18     7     8   am
    19     7     9    2
    20    19    20   ar
    21    20    15   ar
    22     6     1   ar
    23    12    13    1
    24    21    22    1
    25    25    26    1
    26    25    27    1
    27     8    10    1
    28     8    11    1
@<TRIPOS>MOLECULE
*****
 27 28 0 0 0
SMALL
GASTEIGER

@<TRIPOS>ATOM
      1 C         139.3906  141.1020  164.5139 C.ar    1  UNL1        0.1409
      2 N         139.0644  142.5298  164.1898 N.ar    1  UNL1       -0.1986
      3 C         138.0270  142.8454  163.1533 C.ar    1  UNL1        0.2181
      4 N         137.3159  141.7333  162.4409 N.ar    1  UNL1       -0.2120
      5 C         137.6422  140.3055  162.7650 C.ar    1  UNL1        0.1091
      6 C         138.6795  139.9899  163.8014 C.ar    1  UNL1        0.1040
      7 C         139.0058  138.5621  164.1255 C.2     1  UNL1        0.2470
      8 N         139.7793  137.7288  163.1471 N.am    1  UNL1       -0.3252
      9 O         138.5585  137.9676  165.4280 O.2     1  UNL1       -0.2702
     10 H         140.0728  138.1190  162.2922 H       1  UNL1        0.1453
     11 H         139.9934  136.7917  163.3598 H       1  UNL1        0.1453
     12 N         140.4280  140.7863  165.5503 N.pl3   1  UNL1       -0.2977
     13 H         141.3011  140.4222  165.2779 H       1  UNL1        0.1536
     14 C         140.5913  143.8768  169.7243 C.3     1  UNL1        0.0311
     15 C         140.2166  142.5707  169.0889 C.ar    1  UNL1       -0.0206
     16 C         139.5489  141.5039  169.9049 C.ar    1  UNL1       -0.0042
     17 C         139.1743  140.1978  169.2694 C.ar    1  UNL1        0.0009
     18 C         139.4673  139.9586  167.8179 C.ar    1  UNL1        0.0146
     19 C         140.1349  141.0255  167.0019 C.ar    1  UNL1        0.0491
     20 C         140.5096  142.3316  167.6374 C.ar    1  UNL1        0.0104
     21 N         137.7007  144.2732  162.8292 N.pl3   1  UNL1       -0.3016
     22 H         136.7650  144.5444  162.6879 H       1  UNL1        0.1497
     23 C         138.8003  145.2877  162.7206 C.3     1  UNL1        0.1064
     24 C         139.8445  145.1505  161.6525 C.3     1  UNL1        0.0867
     25 N         141.2834  145.4309  161.9699 N.3     1  UNL1       -0.3197
     26 H         141.3960  146.4200  162.1925 H       1  UNL1        0.1189
     27 H         141.8616  145.1962  161.1630 H       1  UNL1        0.1189
@<TRIPOS>BOND
     1    14    15    1
     2    15    16   ar
     3    16    17   ar
     4    17    18   ar
     5    18    19   ar
     6    19    12    1
     7    12     1    1
     8     1     2   ar
     9     2     3   ar
    10     3    21    1
    11    21    23    1
    12    23    24    1
    13    24    25    1
    14     3     4   ar
    15     4     5   ar
    16     5     6   ar
    17     6     7    1
    18     7     8   am
    19     7     9    2
    20    19    20   ar
    21    20    15   ar
    22     6     1   ar
    23    12    13    1
    24    21    22    1
    25    25    26    1
    26    25    27    1
    27     8    10    1
    28     8    11    1
@<TRIPOS>MOLECULE
*****
 27 28 0 0 0
SMALL
GASTEIGER

@<TRIPOS>ATOM
      1 C         140.0927  140.1139  165.7559 C.ar    1  UNL1        0.1409
      2 N         140.2648  140.3855  167.2211 N.ar    1  UNL1       -0.1986
      3 C         139.2934  139.8111  168.2094 C.ar    1  UNL1        0.2181
      4 N         138.1502  138.9652  167.7326 N.ar    1  UNL1       -0.2120
      5 C         137.9781  138.6937  166.2674 C.ar    1  UNL1        0.1091
      6 C         138.9494  139.2680  165.2791 C.ar    1  UNL1        0.1040
      7 C         138.7773  138.9965  163.8140 C.2     1  UNL1        0.2470
      8 N         138.7445  137.5834  163.3119 N.am    1  UNL1       -0.3252
      9 O         138.6381  140.1381  162.8509 O.2     1  UNL1       -0.2702
     10 H         138.8359  136.8342  163.9440 H       1  UNL1        0.1453
     11 H         138.6316  137.4052  162.3502 H       1  UNL1        0.1453
     12 N         141.0639  140.6883  164.7676 N.pl3   1  UNL1       -0.2977
     13 H         141.6829  140.0948  164.2839 H       1  UNL1        0.1536
     14 C         143.6740  144.9748  163.4211 C.3     1  UNL1        0.0311
     15 C         142.3972  144.3101  163.8430 C.ar    1  UNL1       -0.0206
     16 C         141.1488  145.1238  164.0135 C.ar    1  UNL1       -0.0042
     17 C         139.8720  144.4590  164.4354 C.ar    1  UNL1        0.0009
     18 C         139.8437  142.9806  164.6867 C.ar    1  UNL1        0.0146
     19 C         141.0922  142.1668  164.5162 C.ar    1  UNL1        0.0491
     20 C         142.3689  142.8316  164.0943 C.ar    1  UNL1        0.0104
     21 N         139.4655  140.0827  169.6746 N.pl3   1  UNL1       -0.3016
     22 H         139.0344  139.4966  170.3378 H       1  UNL1        0.1497
     23 C         140.2944  141.2473  170.1292 C.3     1  UNL1        0.1064
     24 C         141.3660  141.0482  171.1598 C.3     1  UNL1        0.0867
     25 N         142.0025  142.2357  171.8190 N.3     1  UNL1       -0.3197
     26 H         142.5290  142.7677  171.1259 H       1  UNL1        0.1189
     27 H         142.6333  141.9185  172.5551 H       1  UNL1        0.1189
@<TRIPOS>BOND
     1    14    15    1
     2    15    16   ar
     3    16    17   ar
     4    17    18   ar
     5    18    19   ar
     6    19    12    1
     7    12     1    1
     8     1     2   ar
     9     2     3   ar
    10     3    21    1
    11    21    23    1
    12    23    24    1
    13    24    25    1
    14     3     4   ar
    15     4     5   ar
    16     5     6   ar
    17     6     7    1
    18     7     8   am
    19     7     9    2
    20    19    20   ar
    21    20    15   ar
    22     6     1   ar
    23    12    13    1
    24    21    22    1
    25    25    26    1
    26    25    27    1
    27     8    10    1
    28     8    11    1
@<TRIPOS>MOLECULE
*****
 27 28 0 0 0
SMALL
GASTEIGER

@<TRIPOS>ATOM
      1 C         139.2157  139.8242  167.7494 C.ar    1  UNL1        0.1409
      2 N         138.7259  139.8454  169.1670 N.ar    1  UNL1       -0.1986
      3 C         137.5407  139.0159  169.5635 C.ar    1  UNL1        0.2181
      4 N         136.8454  138.1650  168.5424 N.ar    1  UNL1       -0.2120
      5 C         137.3352  138.1437  167.1248 C.ar    1  UNL1        0.1091
      6 C         138.5204  138.9733  166.7283 C.ar    1  UNL1        0.1040
      7 C         139.0102  138.9520  165.3107 C.2     1  UNL1        0.2470
      8 N         139.4133  137.6541  164.6759 N.am    1  UNL1       -0.3252
      9 O         139.0969  140.2286  164.5279 O.2     1  UNL1       -0.2702
     10 H         139.3564  136.8162  165.1897 H       1  UNL1        0.1453
     11 H         139.7348  137.6402  163.7455 H       1  UNL1        0.1453
     12 N         140.4009  140.6537  167.3528 N.pl3   1  UNL1       -0.2977
     13 H         140.7979  140.5488  166.4581 H       1  UNL1        0.1536
     14 C         144.4521  142.4476  170.0675 C.3     1  UNL1        0.0311
     15 C         143.0068  142.5399  169.6769 C.ar    1  UNL1       -0.0206
     16 C         142.1418  143.6215  170.2531 C.ar    1  UNL1       -0.0042
     17 C         140.6965  143.7138  169.8625 C.ar    1  UNL1        0.0009
     18 C         140.1162  142.7245  168.8958 C.ar    1  UNL1        0.0146
     19 C         140.9812  141.6430  168.3196 C.ar    1  UNL1        0.0491
     20 C         142.4265  141.5507  168.7102 C.ar    1  UNL1        0.0104
     21 N         137.0508  139.0371  170.9811 N.pl3   1  UNL1       -0.3016
     22 H         137.3664  139.7342  171.6006 H       1  UNL1        0.1497
     23 C         136.0801  137.9963  171.4549 C.3     1  UNL1        0.1064
     24 C         136.4543  137.0793  172.5815 C.3     1  UNL1        0.0867
     25 N         135.6992  135.8001  172.7897 N.3     1  UNL1       -0.3197
     26 H         134.7373  136.0124  173.0547 H       1  UNL1        0.1189
     27 H         136.1446  135.2591  173.5309 H       1  UNL1        0.1189
@<TRIPOS>BOND
     1    14    15    1
     2    15    16   ar
     3    16    17   ar
     4    17    18   ar
     5    18    19   ar
     6    19    12    1
     7    12     1    1
     8     1     2   ar
     9     2     3   ar
    10     3    21    1
    11    21    23    1
    12    23    24    1
    13    24    25    1
    14     3     4   ar
    15     4     5   ar
    16     5     6   ar
    17     6     7    1
    18     7     8   am
    19     7     9    2
    20    19    20   ar
    21    20    15   ar
    22     6     1   ar
    23    12    13    1
    24    21    22    1
    25    25    26    1
    26    25    27    1
    27     8    10    1
    28     8    11    1
@<TRIPOS>MOLECULE
*****
 27 28 0 0 0
SMALL
GASTEIGER

@<TRIPOS>ATOM
      1 C         141.0065  139.7642  164.6140 C.ar    1  UNL1        0.1409
      2 N         139.6995  139.6585  163.8855 N.ar    1  UNL1       -0.1986
      3 C         139.3972  138.4432  163.0599 C.ar    1  UNL1        0.2181
      4 N         140.4018  137.3336  162.9627 N.ar    1  UNL1       -0.2120
      5 C         141.7088  137.4393  163.6912 C.ar    1  UNL1        0.1091
      6 C         142.0112  138.6545  164.5168 C.ar    1  UNL1        0.1040
      7 C         143.3181  138.7602  165.2452 C.2     1  UNL1        0.2470
      8 N         144.5137  139.3512  164.5587 N.am    1  UNL1       -0.3252
      9 O         143.4295  138.2748  166.6602 O.2     1  UNL1       -0.2702
     10 H         144.4406  139.6698  163.6301 H       1  UNL1        0.1453
     11 H         145.3715  139.4206  165.0369 H       1  UNL1        0.1453
     12 N         141.3089  140.9795  165.4396 N.pl3   1  UNL1       -0.2977
     13 H         141.8691  141.6993  165.0691 H       1  UNL1        0.1536
     14 C         140.4970  143.7899  169.7340 C.3     1  UNL1        0.0311
     15 C         140.3518  142.5032  168.9768 C.ar    1  UNL1       -0.0206
     16 C         139.6555  141.3351  169.6097 C.ar    1  UNL1       -0.0042
     17 C         139.5103  140.0484  168.8525 C.ar    1  UNL1        0.0009
     18 C         140.0614  139.9298  167.4625 C.ar    1  UNL1        0.0146
     19 C         140.7577  141.0980  166.8297 C.ar    1  UNL1        0.0491
     20 C         140.9029  142.3847  167.5868 C.ar    1  UNL1        0.0104
     21 N         138.0902  138.3375  162.3315 N.pl3   1  UNL1       -0.3016
     22 H         137.4748  137.5950  162.5296 H       1  UNL1        0.1497
     23 C         137.7208  139.3632  161.3011 C.3     1  UNL1        0.1064
     24 C         137.5955  140.8063  161.6906 C.3     1  UNL1        0.0867
     25 N         136.9030  141.1811  162.9673 N.3     1  UNL1       -0.3197
     26 H         135.9151  140.9352  162.9031 H       1  UNL1        0.1189
     27 H         136.9941  142.1852  163.1214 H       1  UNL1        0.1189
@<TRIPOS>BOND
     1    14    15    1
     2    15    16   ar
     3    16    17   ar
     4    17    18   ar
     5    18    19   ar
     6    19    12    1
     7    12     1    1
     8     1     2   ar
     9     2     3   ar
    10     3    21    1
    11    21    23    1
    12    23    24    1
    13    24    25    1
    14     3     4   ar
    15     4     5   ar
    16     5     6   ar
    17     6     7    1
    18     7     8   am
    19     7     9    2
    20    19    20   ar
    21    20    15   ar
    22     6     1   ar
    23    12    13    1
    24    21    22    1
    25    25    26    1
    26    25    27    1
    27     8    10    1
    28     8    11    1
