@<TRIPOS>MOLECULE
*****
 40 45 0 0 0
SMALL
GASTEIGER

@<TRIPOS>ATOM
      1 C         139.4719  141.8063  157.5984 C.3     1  UNL1        0.0280
      2 C         138.3438  141.0633  158.2506 C.3     1  UNL1        0.0584
      3 C         137.0701  140.8211  157.4964 C.3     1  UNL1        0.0174
      4 N         138.4896  140.5626  159.6570 N.3     1  UNL1       -0.2733
      5 C         138.8529  139.1141  159.7977 C.3     1  UNL1        0.0768
      6 C         139.0691  138.3217  161.0530 C.3     1  UNL1        0.0433
      7 C         138.9754  138.7823  162.4774 C.ar    1  UNL1       -0.0247
      8 C         139.2681  137.6653  163.4349 C.ar    1  UNL1       -0.0045
      9 C         139.2278  137.9149  164.9134 C.ar    1  UNL1        0.0011
     10 C         138.8947  139.2815  165.4345 C.ar    1  UNL1        0.0170
     11 C         138.6020  140.3984  164.4771 C.ar    1  UNL1       -0.0030
     12 C         138.6423  140.1488  162.9985 C.ar    1  UNL1       -0.0246
     13 C         138.3207  141.3924  162.2239 C.3     1  UNL1        0.0433
     14 C         138.2527  141.5765  160.7367 C.3     1  UNL1        0.0768
     15 C         138.8544  139.5311  166.9131 C.ar    1  UNL1        0.0791
     16 C         139.7350  140.4793  167.6715 C.ar    1  UNL1        0.0352
     17 C         139.3512  140.4105  169.1199 C.ar    1  UNL1        0.0804
     18 C         139.9757  141.1949  170.2356 C.3     1  UNL1        0.0540
     19 N         138.2334  139.4197  169.2567 N.ar    1  UNL1       -0.1736
     20 N         137.9263  138.8761  167.8928 N.ar    1  UNL1       -0.2492
     21 C         136.8756  137.8567  167.5660 C.3     1  UNL1        0.1537
     22 C         139.4730  143.3063  157.5840 C.3     1  UNL1        0.0665
     23 S         140.6355  144.0610  158.1574 S.3     1  UNL1       -0.0756
     24 C         141.6466  144.1864  161.9027 C.ar    1  UNL1        0.1669
     25 N         140.2699  144.7798  161.9542 N.ar    1  UNL1       -0.1282
     26 N         139.7236  144.8051  160.5574 N.ar    1  UNL1       -0.1221
     27 C         140.7626  144.2273  159.6427 C.ar    1  UNL1        0.1932
     28 N         141.9511  143.8449  160.4743 N.ar    1  UNL1       -0.2884
     29 C         143.2211  143.2291  159.9663 C.3     1  UNL1        0.1340
     30 C         143.2134  138.4806  165.4012 C.3     1  UNL1        0.0521
     31 C         143.0496  139.8534  164.8194 C.ar    1  UNL1        0.0593
     32 C         142.1376  140.0677  163.6480 C.ar    1  UNL1        0.0147
     33 C         141.9739  141.4406  163.0662 C.ar    1  UNL1        0.0028
     34 C         142.7223  142.5992  163.6560 C.ar    1  UNL1        0.0206
     35 C         142.5586  143.9720  163.0742 C.ar    1  UNL1        0.0374
     36 C         143.3069  145.1306  163.6638 C.ar    1  UNL1        0.0031
     37 C         144.2190  144.9163  164.8353 C.ar    1  UNL1        0.0016
     38 C         144.3827  143.5434  165.4171 C.ar    1  UNL1        0.0191
     39 C         143.6343  142.3848  164.8273 C.ar    1  UNL1        0.0810
     40 N         143.7980  141.0119  165.4091 N.ar    1  UNL1       -0.2497
@<TRIPOS>BOND
     1    30    31    1
     2    31    32   ar
     3    32    33   ar
     4    33    34   ar
     5    34    35   ar
     6    35    24    1
     7    24    25   ar
     8    25    26   ar
     9    26    27   ar
    10    27    23    1
    11    23    22    1
    12    22     1    1
    13     1     2    1
    14     2     3    1
    15     2     4    1
    16     4     5    1
    17     5     6    1
    18     6     7    1
    19     7     8   ar
    20     8     9   ar
    21     9    10   ar
    22    10    15    1
    23    15    16   ar
    24    16    17   ar
    25    17    18    1
    26    17    19   ar
    27    19    20   ar
    28    20    21    1
    29    10    11   ar
    30    11    12   ar
    31    12    13    1
    32    13    14    1
    33    27    28   ar
    34    28    29    1
    35    35    36   ar
    36    36    37   ar
    37    37    38   ar
    38    38    39   ar
    39    39    40   ar
    40    40    31   ar
    41    39    34   ar
    42    28    24   ar
    43    14     4    1
    44    12     7   ar
    45    20    15   ar
@<TRIPOS>MOLECULE
*****
 40 45 0 0 0
SMALL
GASTEIGER

@<TRIPOS>ATOM
      1 C         142.5530  144.5458  157.6093 C.3     1  UNL1        0.0280
      2 C         141.1608  144.7024  158.1453 C.3     1  UNL1        0.0584
      3 C         140.0819  145.2748  157.2746 C.3     1  UNL1        0.0174
      4 N         140.8476  144.2865  159.5521 N.3     1  UNL1       -0.2733
      5 C         140.7844  145.3958  160.5598 C.3     1  UNL1        0.0768
      6 C         140.4970  145.3089  162.0296 C.3     1  UNL1        0.0433
      7 C         140.2019  144.0914  162.8543 C.ar    1  UNL1       -0.0247
      8 C         139.9710  144.4470  164.2932 C.ar    1  UNL1       -0.0045
      9 C         139.6594  143.3712  165.2910 C.ar    1  UNL1        0.0011
     10 C         139.5787  141.9397  164.8500 C.ar    1  UNL1        0.0170
     11 C         139.8096  141.5841  163.4111 C.ar    1  UNL1       -0.0030
     12 C         140.1212  142.6599  162.4133 C.ar    1  UNL1       -0.0246
     13 C         140.3157  142.0926  161.0385 C.3     1  UNL1        0.0433
     14 C         140.6390  142.8165  159.7651 C.3     1  UNL1        0.0768
     15 C         139.2672  140.8639  165.8477 C.ar    1  UNL1        0.0791
     16 C         138.0839  139.9428  165.8105 C.ar    1  UNL1        0.0352
     17 C         138.1696  139.0300  166.9977 C.ar    1  UNL1        0.0804
     18 C         137.1909  137.9498  167.3517 C.3     1  UNL1        0.0540
     19 N         139.4058  139.3869  167.7686 N.ar    1  UNL1       -0.1736
     20 N         140.0842  140.5204  167.0579 N.ar    1  UNL1       -0.2492
     21 C         141.3562  141.1923  167.4828 C.3     1  UNL1        0.1537
     22 C         143.0272  143.2045  157.1339 C.3     1  UNL1        0.0665
     23 S         144.2681  142.5973  157.7183 S.3     1  UNL1       -0.0756
     24 C         143.9395  140.1921  160.7468 C.ar    1  UNL1        0.1669
     25 N         144.0506  139.2166  159.6127 N.ar    1  UNL1       -0.1282
     26 N         144.1873  139.9990  158.3402 N.ar    1  UNL1       -0.1221
     27 C         144.1606  141.4579  158.6878 C.ar    1  UNL1        0.1932
     28 N         144.0075  141.5772  160.1752 N.ar    1  UNL1       -0.2884
     29 C         143.9350  142.8571  160.9541 C.3     1  UNL1        0.1340
     30 C         138.8614  136.9926  164.0973 C.3     1  UNL1        0.0521
     31 C         140.0928  137.7053  163.6224 C.ar    1  UNL1        0.0593
     32 C         140.2451  138.0538  162.1714 C.ar    1  UNL1        0.0147
     33 C         141.4766  138.7666  161.6965 C.ar    1  UNL1        0.0028
     34 C         142.5557  139.1308  162.6727 C.ar    1  UNL1        0.0206
     35 C         143.7872  139.8436  162.1978 C.ar    1  UNL1        0.0374
     36 C         144.8664  140.2079  163.1739 C.ar    1  UNL1        0.0031
     37 C         144.7141  139.8594  164.6249 C.ar    1  UNL1        0.0016
     38 C         143.4826  139.1466  165.0998 C.ar    1  UNL1        0.0191
     39 C         142.4034  138.7823  164.1236 C.ar    1  UNL1        0.0810
     40 N         141.1720  138.0696  164.5985 N.ar    1  UNL1       -0.2497
@<TRIPOS>BOND
     1    30    31    1
     2    31    32   ar
     3    32    33   ar
     4    33    34   ar
     5    34    35   ar
     6    35    24    1
     7    24    25   ar
     8    25    26   ar
     9    26    27   ar
    10    27    23    1
    11    23    22    1
    12    22     1    1
    13     1     2    1
    14     2     3    1
    15     2     4    1
    16     4     5    1
    17     5     6    1
    18     6     7    1
    19     7     8   ar
    20     8     9   ar
    21     9    10   ar
    22    10    15    1
    23    15    16   ar
    24    16    17   ar
    25    17    18    1
    26    17    19   ar
    27    19    20   ar
    28    20    21    1
    29    10    11   ar
    30    11    12   ar
    31    12    13    1
    32    13    14    1
    33    27    28   ar
    34    28    29    1
    35    35    36   ar
    36    36    37   ar
    37    37    38   ar
    38    38    39   ar
    39    39    40   ar
    40    40    31   ar
    41    39    34   ar
    42    28    24   ar
    43    14     4    1
    44    12     7   ar
    45    20    15   ar
@<TRIPOS>MOLECULE
*****
 40 45 0 0 0
SMALL
GASTEIGER

@<TRIPOS>ATOM
      1 C         143.1984  143.0099  157.6482 C.3     1  UNL1        0.0280
      2 C         143.6300  141.8467  158.4912 C.3     1  UNL1        0.0584
      3 C         144.1421  140.5968  157.8391 C.3     1  UNL1        0.0174
      4 N         143.5493  141.9335  159.9866 N.3     1  UNL1       -0.2733
      5 C         144.5536  142.8353  160.6412 C.3     1  UNL1        0.0768
      6 C         144.7316  143.1333  162.1005 C.3     1  UNL1        0.0433
      7 C         143.9495  142.6033  163.2654 C.ar    1  UNL1       -0.0247
      8 C         144.4564  143.1581  164.5637 C.ar    1  UNL1       -0.0045
      9 C         143.8099  142.7538  165.8554 C.ar    1  UNL1        0.0011
     10 C         142.6565  141.7948  165.8490 C.ar    1  UNL1        0.0170
     11 C         142.1496  141.2401  164.5508 C.ar    1  UNL1       -0.0030
     12 C         142.7961  141.6444  163.2590 C.ar    1  UNL1       -0.0246
     13 C         142.1400  140.9785  162.0859 C.3     1  UNL1        0.0433
     14 C         142.4753  141.1073  160.6295 C.3     1  UNL1        0.0768
     15 C         142.0100  141.3906  167.1408 C.ar    1  UNL1        0.0791
     16 C         141.0993  142.2416  167.9751 C.ar    1  UNL1        0.0352
     17 C         140.6872  141.4413  169.1750 C.ar    1  UNL1        0.0804
     18 C         139.7786  141.9053  170.2746 C.3     1  UNL1        0.0540
     19 N         141.3432  140.0956  169.0821 N.ar    1  UNL1       -0.1736
     20 N         142.1608  140.0641  167.8249 N.ar    1  UNL1       -0.2492
     21 C         142.9845  138.9092  167.3375 C.3     1  UNL1        0.1537
     22 C         141.8139  143.0460  157.0722 C.3     1  UNL1        0.0665
     23 S         140.8099  144.0307  157.5941 S.3     1  UNL1       -0.0756
     24 C         139.1588  143.4397  161.0567 C.ar    1  UNL1        0.1669
     25 N         138.1385  142.8303  160.1413 N.ar    1  UNL1       -0.1282
     26 N         138.6329  142.9775  158.7327 N.ar    1  UNL1       -0.1221
     27 C         139.9586  143.6779  158.7776 C.ar    1  UNL1        0.1932
     28 N         140.2836  143.9635  160.2139 N.ar    1  UNL1       -0.2884
     29 C         141.5169  144.6521  160.7187 C.3     1  UNL1        0.1340
     30 C         138.3892  138.4910  165.7650 C.3     1  UNL1        0.0521
     31 C         138.5593  139.7463  164.9618 C.ar    1  UNL1        0.0593
     32 C         138.6484  139.6735  163.4662 C.ar    1  UNL1        0.0147
     33 C         138.8185  140.9289  162.6630 C.ar    1  UNL1        0.0028
     34 C         138.8996  142.2571  163.3555 C.ar    1  UNL1        0.0206
     35 C         139.0697  143.5125  162.5523 C.ar    1  UNL1        0.0374
     36 C         139.1508  144.8407  163.2446 C.ar    1  UNL1        0.0031
     37 C         139.0617  144.9135  164.7402 C.ar    1  UNL1        0.0016
     38 C         138.8916  143.6581  165.5434 C.ar    1  UNL1        0.0191
     39 C         138.8105  142.3299  164.8510 C.ar    1  UNL1        0.0810
     40 N         138.6404  141.0745  165.6542 N.ar    1  UNL1       -0.2497
@<TRIPOS>BOND
     1    30    31    1
     2    31    32   ar
     3    32    33   ar
     4    33    34   ar
     5    34    35   ar
     6    35    24    1
     7    24    25   ar
     8    25    26   ar
     9    26    27   ar
    10    27    23    1
    11    23    22    1
    12    22     1    1
    13     1     2    1
    14     2     3    1
    15     2     4    1
    16     4     5    1
    17     5     6    1
    18     6     7    1
    19     7     8   ar
    20     8     9   ar
    21     9    10   ar
    22    10    15    1
    23    15    16   ar
    24    16    17   ar
    25    17    18    1
    26    17    19   ar
    27    19    20   ar
    28    20    21    1
    29    10    11   ar
    30    11    12   ar
    31    12    13    1
    32    13    14    1
    33    27    28   ar
    34    28    29    1
    35    35    36   ar
    36    36    37   ar
    37    37    38   ar
    38    38    39   ar
    39    39    40   ar
    40    40    31   ar
    41    39    34   ar
    42    28    24   ar
    43    14     4    1
    44    12     7   ar
    45    20    15   ar
@<TRIPOS>MOLECULE
*****
 40 45 0 0 0
SMALL
GASTEIGER

@<TRIPOS>ATOM
      1 C         140.4110  141.1555  156.5272 C.3     1  UNL1        0.0280
      2 C         141.2157  140.1408  157.2840 C.3     1  UNL1        0.0584
      3 C         142.3313  139.4071  156.6005 C.3     1  UNL1        0.0174
      4 N         140.9048  139.8598  158.7243 N.3     1  UNL1       -0.2733
      5 C         139.8681  138.8044  158.9723 C.3     1  UNL1        0.0768
      6 C         139.3423  138.2999  160.2835 C.3     1  UNL1        0.0433
      7 C         139.7232  138.7261  161.6702 C.ar    1  UNL1       -0.0247
      8 C         138.9535  137.9647  162.7084 C.ar    1  UNL1       -0.0045
      9 C         139.1846  138.2394  164.1648 C.ar    1  UNL1        0.0011
     10 C         140.1854  139.2755  164.5831 C.ar    1  UNL1        0.0170
     11 C         140.9551  140.0369  163.5449 C.ar    1  UNL1       -0.0030
     12 C         140.7240  139.7622  162.0885 C.ar    1  UNL1       -0.0246
     13 C         141.5911  140.6279  161.2232 C.3     1  UNL1        0.0433
     14 C         141.6715  140.6713  159.7260 C.3     1  UNL1        0.0768
     15 C         140.4165  139.5502  166.0395 C.ar    1  UNL1        0.0791
     16 C         139.3935  140.0510  167.0155 C.ar    1  UNL1        0.0352
     17 C         140.0560  140.1826  168.3548 C.ar    1  UNL1        0.0804
     18 C         139.4009  140.6513  169.6201 C.3     1  UNL1        0.0540
     19 N         141.4884  139.7631  168.2066 N.ar    1  UNL1       -0.1736
     20 N         141.7114  139.3722  166.7756 N.ar    1  UNL1       -0.2492
     21 C         143.0023  138.8884  166.1846 C.3     1  UNL1        0.1537
     22 C         140.7987  142.6039  156.5703 C.3     1  UNL1        0.0665
     23 S         139.8439  143.6198  157.1238 S.3     1  UNL1       -0.0756
     24 C         139.8353  144.3493  160.9359 C.ar    1  UNL1        0.1669
     25 N         140.7210  145.4502  160.4322 N.ar    1  UNL1       -0.1282
     26 N         140.8321  145.3108  158.9428 N.ar    1  UNL1       -0.1221
     27 C         140.0150  144.1239  158.5261 C.ar    1  UNL1        0.1932
     28 N         139.3989  143.5297  159.7580 N.ar    1  UNL1       -0.2884
     29 C         138.5037  142.3270  159.8036 C.3     1  UNL1        0.1340
     30 C         143.6385  142.5372  166.3675 C.3     1  UNL1        0.0521
     31 C         142.5922  142.9305  165.3673 C.ar    1  UNL1        0.0593
     32 C         142.9745  143.1696  163.9366 C.ar    1  UNL1        0.0147
     33 C         141.9281  143.5629  162.9364 C.ar    1  UNL1        0.0028
     34 C         140.4994  143.7169  163.3668 C.ar    1  UNL1        0.0206
     35 C         139.4530  144.1102  162.3666 C.ar    1  UNL1        0.0374
     36 C         138.0243  144.2643  162.7969 C.ar    1  UNL1        0.0031
     37 C         137.6421  144.0251  164.2276 C.ar    1  UNL1        0.0016
     38 C         138.6885  143.6319  165.2278 C.ar    1  UNL1        0.0191
     39 C         140.1172  143.4778  164.7974 C.ar    1  UNL1        0.0810
     40 N         141.1636  143.0845  165.7976 N.ar    1  UNL1       -0.2497
@<TRIPOS>BOND
     1    30    31    1
     2    31    32   ar
     3    32    33   ar
     4    33    34   ar
     5    34    35   ar
     6    35    24    1
     7    24    25   ar
     8    25    26   ar
     9    26    27   ar
    10    27    23    1
    11    23    22    1
    12    22     1    1
    13     1     2    1
    14     2     3    1
    15     2     4    1
    16     4     5    1
    17     5     6    1
    18     6     7    1
    19     7     8   ar
    20     8     9   ar
    21     9    10   ar
    22    10    15    1
    23    15    16   ar
    24    16    17   ar
    25    17    18    1
    26    17    19   ar
    27    19    20   ar
    28    20    21    1
    29    10    11   ar
    30    11    12   ar
    31    12    13    1
    32    13    14    1
    33    27    28   ar
    34    28    29    1
    35    35    36   ar
    36    36    37   ar
    37    37    38   ar
    38    38    39   ar
    39    39    40   ar
    40    40    31   ar
    41    39    34   ar
    42    28    24   ar
    43    14     4    1
    44    12     7   ar
    45    20    15   ar
@<TRIPOS>MOLECULE
*****
 40 45 0 0 0
SMALL
GASTEIGER

@<TRIPOS>ATOM
      1 C         142.3141  141.0416  157.2257 C.3     1  UNL1        0.0280
      2 C         142.5969  139.7509  157.9356 C.3     1  UNL1        0.0584
      3 C         143.0161  138.5412  157.1540 C.3     1  UNL1        0.0174
      4 N         142.4604  139.6698  159.4272 N.3     1  UNL1       -0.2733
      5 C         142.6496  138.3070  160.0249 C.3     1  UNL1        0.0768
      6 C         142.5779  137.9001  161.4670 C.3     1  UNL1        0.0433
      7 C         142.2993  138.7553  162.6672 C.ar    1  UNL1       -0.0247
      8 C         142.3189  137.9484  163.9316 C.ar    1  UNL1       -0.0045
      9 C         142.0629  138.6148  165.2508 C.ar    1  UNL1        0.0011
     10 C         141.7871  140.0882  165.3057 C.ar    1  UNL1        0.0170
     11 C         141.7674  140.8952  164.0414 C.ar    1  UNL1       -0.0030
     12 C         142.0235  140.2287  162.7222 C.ar    1  UNL1       -0.0246
     13 C         141.9583  141.2108  161.5903 C.3     1  UNL1        0.0433
     14 C         142.1527  140.9620  160.1239 C.3     1  UNL1        0.0768
     15 C         141.5310  140.7547  166.6249 C.ar    1  UNL1        0.0791
     16 C         140.4402  140.4039  167.5929 C.ar    1  UNL1        0.0352
     17 C         140.5559  141.3213  168.7739 C.ar    1  UNL1        0.0804
     18 C         139.6655  141.3210  169.9811 C.3     1  UNL1        0.0540
     19 N         141.7181  142.2392  168.5358 N.ar    1  UNL1       -0.1736
     20 N         142.3208  141.8890  167.2077 N.ar    1  UNL1       -0.2492
     21 C         143.5053  142.5560  166.5736 C.3     1  UNL1        0.1537
     22 C         141.2810  141.0893  156.1392 C.3     1  UNL1        0.0665
     23 S         139.8889  141.5549  156.4478 S.3     1  UNL1       -0.0756
     24 C         138.4662  141.1669  160.0381 C.ar    1  UNL1        0.1669
     25 N         137.9754  139.9043  159.3939 N.ar    1  UNL1       -0.1282
     26 N         138.4487  139.8960  157.9705 N.ar    1  UNL1       -0.1221
     27 C         139.2319  141.1534  157.7350 C.ar    1  UNL1        0.1932
     28 N         139.2426  141.9389  159.0129 N.ar    1  UNL1       -0.2884
     29 C         139.9124  143.2638  159.2278 C.3     1  UNL1        0.1340
     30 C         138.5306  137.5305  165.8710 C.3     1  UNL1        0.0521
     31 C         138.4537  138.5439  164.7678 C.ar    1  UNL1        0.0593
     32 C         138.6969  138.1265  163.3476 C.ar    1  UNL1        0.0147
     33 C         138.6200  139.1400  162.2444 C.ar    1  UNL1        0.0028
     34 C         138.2999  140.5708  162.5614 C.ar    1  UNL1        0.0206
     35 C         138.2230  141.5843  161.4582 C.ar    1  UNL1        0.0374
     36 C         137.9030  143.0151  161.7751 C.ar    1  UNL1        0.0031
     37 C         137.6599  143.4324  163.1952 C.ar    1  UNL1        0.0016
     38 C         137.7368  142.4189  164.2985 C.ar    1  UNL1        0.0191
     39 C         138.0568  140.9881  163.9815 C.ar    1  UNL1        0.0810
     40 N         138.1337  139.9747  165.0847 N.ar    1  UNL1       -0.2497
@<TRIPOS>BOND
     1    30    31    1
     2    31    32   ar
     3    32    33   ar
     4    33    34   ar
     5    34    35   ar
     6    35    24    1
     7    24    25   ar
     8    25    26   ar
     9    26    27   ar
    10    27    23    1
    11    23    22    1
    12    22     1    1
    13     1     2    1
    14     2     3    1
    15     2     4    1
    16     4     5    1
    17     5     6    1
    18     6     7    1
    19     7     8   ar
    20     8     9   ar
    21     9    10   ar
    22    10    15    1
    23    15    16   ar
    24    16    17   ar
    25    17    18    1
    26    17    19   ar
    27    19    20   ar
    28    20    21    1
    29    10    11   ar
    30    11    12   ar
    31    12    13    1
    32    13    14    1
    33    27    28   ar
    34    28    29    1
    35    35    36   ar
    36    36    37   ar
    37    37    38   ar
    38    38    39   ar
    39    39    40   ar
    40    40    31   ar
    41    39    34   ar
    42    28    24   ar
    43    14     4    1
    44    12     7   ar
    45    20    15   ar
@<TRIPOS>MOLECULE
*****
 40 45 0 0 0
SMALL
GASTEIGER

@<TRIPOS>ATOM
      1 C         141.8532  137.7456  157.6101 C.3     1  UNL1        0.0280
      2 C         140.4542  138.2432  157.8220 C.3     1  UNL1        0.0584
      3 C         139.4894  138.2803  156.6741 C.3     1  UNL1        0.0174
      4 N         140.0199  138.7036  159.1820 N.3     1  UNL1       -0.2733
      5 C         138.8003  139.5764  159.2148 C.3     1  UNL1        0.0768
      6 C         138.1223  140.1916  160.4031 C.3     1  UNL1        0.0433
      7 C         138.4962  140.0859  161.8517 C.ar    1  UNL1       -0.0247
      8 C         137.5479  140.8581  162.7203 C.ar    1  UNL1       -0.0045
      9 C         137.7440  140.8835  164.2072 C.ar    1  UNL1        0.0011
     10 C         138.8884  140.1366  164.8257 C.ar    1  UNL1        0.0170
     11 C         139.8368  139.3643  163.9571 C.ar    1  UNL1       -0.0030
     12 C         139.6407  139.3390  162.4702 C.ar    1  UNL1       -0.0246
     13 C         140.6937  138.5132  161.7926 C.3     1  UNL1        0.0433
     14 C         140.8625  138.2305  160.3291 C.3     1  UNL1        0.0768
     15 C         139.0845  140.1619  166.3126 C.ar    1  UNL1        0.0791
     16 C         139.9473  141.1257  167.0718 C.ar    1  UNL1        0.0352
     17 C         139.8483  140.7873  168.5297 C.ar    1  UNL1        0.0804
     18 C         140.5501  141.4973  169.6493 C.3     1  UNL1        0.0540
     19 N         138.9242  139.6143  168.6716 N.ar    1  UNL1       -0.1736
     20 N         138.4521  139.2277  167.3013 N.ar    1  UNL1       -0.2492
     21 C         137.5127  138.1043  166.9767 C.3     1  UNL1        0.1537
     22 C         142.8612  138.6139  156.9172 C.3     1  UNL1        0.0665
     23 S         143.3421  139.8745  157.5727 S.3     1  UNL1       -0.0756
     24 C         143.9948  140.6547  161.3184 C.ar    1  UNL1        0.1669
     25 N         144.1973  139.1687  161.2924 N.ar    1  UNL1       -0.1282
     26 N         143.9774  138.6955  159.8860 N.ar    1  UNL1       -0.1221
     27 C         143.6390  139.8891  159.0429 C.ar    1  UNL1        0.1932
     28 N         143.6498  141.1000  159.9282 N.ar    1  UNL1       -0.2884
     29 C         143.3655  142.5088  159.4986 C.3     1  UNL1        0.1340
     30 C         139.3486  144.6129  164.4801 C.3     1  UNL1        0.0521
     31 C         140.5404  143.8447  163.9909 C.ar    1  UNL1        0.0593
     32 C         140.4192  142.9593  162.7861 C.ar    1  UNL1        0.0147
     33 C         141.6110  142.1911  162.2968 C.ar    1  UNL1        0.0028
     34 C         142.9242  142.3083  163.0124 C.ar    1  UNL1        0.0206
     35 C         144.1161  141.5401  162.5232 C.ar    1  UNL1        0.0374
     36 C         145.4292  141.6572  163.2387 C.ar    1  UNL1        0.0031
     37 C         145.5505  142.5426  164.4435 C.ar    1  UNL1        0.0016
     38 C         144.3586  143.3108  164.9327 C.ar    1  UNL1        0.0191
     39 C         143.0454  143.1936  164.2171 C.ar    1  UNL1        0.0810
     40 N         141.8536  143.9618  164.7064 N.ar    1  UNL1       -0.2497
@<TRIPOS>BOND
     1    30    31    1
     2    31    32   ar
     3    32    33   ar
     4    33    34   ar
     5    34    35   ar
     6    35    24    1
     7    24    25   ar
     8    25    26   ar
     9    26    27   ar
    10    27    23    1
    11    23    22    1
    12    22     1    1
    13     1     2    1
    14     2     3    1
    15     2     4    1
    16     4     5    1
    17     5     6    1
    18     6     7    1
    19     7     8   ar
    20     8     9   ar
    21     9    10   ar
    22    10    15    1
    23    15    16   ar
    24    16    17   ar
    25    17    18    1
    26    17    19   ar
    27    19    20   ar
    28    20    21    1
    29    10    11   ar
    30    11    12   ar
    31    12    13    1
    32    13    14    1
    33    27    28   ar
    34    28    29    1
    35    35    36   ar
    36    36    37   ar
    37    37    38   ar
    38    38    39   ar
    39    39    40   ar
    40    40    31   ar
    41    39    34   ar
    42    28    24   ar
    43    14     4    1
    44    12     7   ar
    45    20    15   ar
@<TRIPOS>MOLECULE
*****
 40 45 0 0 0
SMALL
GASTEIGER

@<TRIPOS>ATOM
      1 C         139.5243  140.3974  167.6010 C.3     1  UNL1        0.0280
      2 C         138.6319  139.5892  166.7063 C.3     1  UNL1        0.0584
      3 C         137.7016  138.5712  167.2963 C.3     1  UNL1        0.0174
      4 N         138.6698  139.7991  165.2215 N.3     1  UNL1       -0.2733
      5 C         138.8074  138.5568  164.3920 C.3     1  UNL1        0.0768
      6 C         138.8743  138.4322  162.8986 C.3     1  UNL1        0.0433
      7 C         138.8202  139.5188  161.8661 C.ar    1  UNL1       -0.0247
      8 C         138.9202  138.9606  160.4774 C.ar    1  UNL1       -0.0045
      9 C         138.8859  139.8822  159.2944 C.ar    1  UNL1        0.0011
     10 C         138.7515  141.3620  159.5000 C.ar    1  UNL1        0.0170
     11 C         138.6514  141.9201  160.8887 C.ar    1  UNL1       -0.0030
     12 C         138.6858  140.9985  162.0717 C.ar    1  UNL1       -0.0246
     13 C         138.5723  141.7571  163.3608 C.3     1  UNL1        0.0433
     14 C         138.5652  141.2232  164.7626 C.3     1  UNL1        0.0768
     15 C         138.7172  142.2835  158.3170 C.ar    1  UNL1        0.0791
     16 C         139.5895  143.4861  158.1106 C.ar    1  UNL1        0.0352
     17 C         139.2159  144.1101  156.7987 C.ar    1  UNL1        0.0804
     18 C         139.8367  145.3359  156.1969 C.3     1  UNL1        0.0540
     19 N         138.1127  143.2932  156.1943 N.ar    1  UNL1       -0.1736
     20 N         137.8043  142.1642  157.1326 N.ar    1  UNL1       -0.2492
     21 C         136.7657  141.1025  156.9234 C.3     1  UNL1        0.1537
     22 C         140.3453  139.7158  168.6553 C.3     1  UNL1        0.0665
     23 S         141.8404  139.8343  168.6347 S.3     1  UNL1       -0.0756
     24 C         143.3944  142.0172  165.8267 C.ar    1  UNL1        0.1669
     25 N         143.6322  142.8806  167.0301 N.ar    1  UNL1       -0.1282
     26 N         143.0789  142.1679  168.2285 N.ar    1  UNL1       -0.1221
     27 C         142.4993  140.8641  167.7657 C.ar    1  UNL1        0.1932
     28 N         142.6943  140.7710  166.2813 N.ar    1  UNL1       -0.2884
     29 C         142.2645  139.6316  165.4055 C.3     1  UNL1        0.1340
     30 C         140.2240  145.7780  161.0251 C.3     1  UNL1        0.0521
     31 C         141.1149  144.9193  161.8729 C.ar    1  UNL1        0.0593
     32 C         140.7216  144.5936  163.2833 C.ar    1  UNL1        0.0147
     33 C         141.6125  143.7348  164.1312 C.ar    1  UNL1        0.0028
     34 C         142.8968  143.2017  163.5685 C.ar    1  UNL1        0.0206
     35 C         143.7877  142.3429  164.4163 C.ar    1  UNL1        0.0374
     36 C         145.0720  141.8098  163.8537 C.ar    1  UNL1        0.0031
     37 C         145.4653  142.1355  162.4433 C.ar    1  UNL1        0.0016
     38 C         144.5744  142.9943  161.5955 C.ar    1  UNL1        0.0191
     39 C         143.2901  143.5274  162.1582 C.ar    1  UNL1        0.0810
     40 N         142.3991  144.3862  161.3103 N.ar    1  UNL1       -0.2497
@<TRIPOS>BOND
     1    30    31    1
     2    31    32   ar
     3    32    33   ar
     4    33    34   ar
     5    34    35   ar
     6    35    24    1
     7    24    25   ar
     8    25    26   ar
     9    26    27   ar
    10    27    23    1
    11    23    22    1
    12    22     1    1
    13     1     2    1
    14     2     3    1
    15     2     4    1
    16     4     5    1
    17     5     6    1
    18     6     7    1
    19     7     8   ar
    20     8     9   ar
    21     9    10   ar
    22    10    15    1
    23    15    16   ar
    24    16    17   ar
    25    17    18    1
    26    17    19   ar
    27    19    20   ar
    28    20    21    1
    29    10    11   ar
    30    11    12   ar
    31    12    13    1
    32    13    14    1
    33    27    28   ar
    34    28    29    1
    35    35    36   ar
    36    36    37   ar
    37    37    38   ar
    38    38    39   ar
    39    39    40   ar
    40    40    31   ar
    41    39    34   ar
    42    28    24   ar
    43    14     4    1
    44    12     7   ar
    45    20    15   ar
@<TRIPOS>MOLECULE
*****
 40 45 0 0 0
SMALL
GASTEIGER

@<TRIPOS>ATOM
      1 C         140.2848  138.8721  157.9359 C.3     1  UNL1        0.0280
      2 C         141.4792  138.3509  158.6787 C.3     1  UNL1        0.0584
      3 C         142.5866  137.6672  157.9329 C.3     1  UNL1        0.0174
      4 N         141.5663  138.5136  160.1673 N.3     1  UNL1       -0.2733
      5 C         142.9023  138.2099  160.7780 C.3     1  UNL1        0.0768
      6 C         143.3079  138.2761  162.2207 C.3     1  UNL1        0.0433
      7 C         142.4777  138.6623  163.4087 C.ar    1  UNL1       -0.0247
      8 C         143.2736  138.5954  164.6785 C.ar    1  UNL1       -0.0045
      9 C         142.6286  138.9440  165.9871 C.ar    1  UNL1        0.0011
     10 C         141.1878  139.3595  166.0261 C.ar    1  UNL1        0.0170
     11 C         140.3919  139.4263  164.7564 C.ar    1  UNL1       -0.0030
     12 C         141.0369  139.0777  163.4478 C.ar    1  UNL1       -0.0246
     13 C         140.0704  139.2095  162.3082 C.3     1  UNL1        0.0433
     14 C         140.3061  138.9585  160.8482 C.3     1  UNL1        0.0768
     15 C         140.5429  139.7081  167.3348 C.ar    1  UNL1        0.0791
     16 C         141.2161  140.3683  168.5013 C.ar    1  UNL1        0.0352
     17 C         140.2008  140.5259  169.5941 C.ar    1  UNL1        0.0804
     18 C         140.4436  141.1388  170.9415 C.3     1  UNL1        0.0540
     19 N         138.9000  139.9630  169.1030 N.ar    1  UNL1       -0.1736
     20 N         139.1114  139.4576  167.7066 N.ar    1  UNL1       -0.2492
     21 C         138.0736  138.8145  166.8352 C.3     1  UNL1        0.1537
     22 C         140.4468  139.9808  156.9386 C.3     1  UNL1        0.0665
     23 S         139.7570  141.2944  157.1588 S.3     1  UNL1       -0.0756
     24 C         139.9635  143.0285  160.6251 C.ar    1  UNL1        0.1669
     25 N         141.1048  143.6835  159.9049 N.ar    1  UNL1       -0.1282
     26 N         141.1663  143.1135  158.5187 N.ar    1  UNL1       -0.1221
     27 C         140.0631  142.1064  158.3822 C.ar    1  UNL1        0.1932
     28 N         139.3198  142.0539  159.6841 N.ar    1  UNL1       -0.2884
     29 C         138.1398  141.1800  159.9909 C.3     1  UNL1        0.1340
     30 C         143.4072  142.4440  166.5454 C.3     1  UNL1        0.0521
     31 C         142.4406  142.6581  165.4186 C.ar    1  UNL1        0.0593
     32 C         142.8637  142.3861  164.0054 C.ar    1  UNL1        0.0147
     33 C         141.8970  142.6002  162.8786 C.ar    1  UNL1        0.0028
     34 C         140.5071  143.0863  163.1651 C.ar    1  UNL1        0.0206
     35 C         139.5404  143.3004  162.0382 C.ar    1  UNL1        0.0374
     36 C         138.1505  143.7865  162.3246 C.ar    1  UNL1        0.0031
     37 C         137.7273  144.0585  163.7377 C.ar    1  UNL1        0.0016
     38 C         138.6941  143.8444  164.8646 C.ar    1  UNL1        0.0191
     39 C         140.0840  143.3583  164.5781 C.ar    1  UNL1        0.0810
     40 N         141.0507  143.1442  165.7049 N.ar    1  UNL1       -0.2497
@<TRIPOS>BOND
     1    30    31    1
     2    31    32   ar
     3    32    33   ar
     4    33    34   ar
     5    34    35   ar
     6    35    24    1
     7    24    25   ar
     8    25    26   ar
     9    26    27   ar
    10    27    23    1
    11    23    22    1
    12    22     1    1
    13     1     2    1
    14     2     3    1
    15     2     4    1
    16     4     5    1
    17     5     6    1
    18     6     7    1
    19     7     8   ar
    20     8     9   ar
    21     9    10   ar
    22    10    15    1
    23    15    16   ar
    24    16    17   ar
    25    17    18    1
    26    17    19   ar
    27    19    20   ar
    28    20    21    1
    29    10    11   ar
    30    11    12   ar
    31    12    13    1
    32    13    14    1
    33    27    28   ar
    34    28    29    1
    35    35    36   ar
    36    36    37   ar
    37    37    38   ar
    38    38    39   ar
    39    39    40   ar
    40    40    31   ar
    41    39    34   ar
    42    28    24   ar
    43    14     4    1
    44    12     7   ar
    45    20    15   ar
@<TRIPOS>MOLECULE
*****
 40 45 0 0 0
SMALL
GASTEIGER

@<TRIPOS>ATOM
      1 C         140.3657  143.2260  158.0388 C.3     1  UNL1        0.0280
      2 C         140.8773  144.2710  158.9854 C.3     1  UNL1        0.0584
      3 C         141.6237  145.4602  158.4576 C.3     1  UNL1        0.0174
      4 N         140.6425  144.1267  160.4599 N.3     1  UNL1       -0.2733
      5 C         139.6929  145.1163  161.0675 C.3     1  UNL1        0.0768
      6 C         139.2546  145.2354  162.4972 C.3     1  UNL1        0.0433
      7 C         139.6576  144.3947  163.6721 C.ar    1  UNL1       -0.0247
      8 C         138.9838  144.8536  164.9312 C.ar    1  UNL1       -0.0045
      9 C         139.2509  144.1449  166.2260 C.ar    1  UNL1        0.0011
     10 C         140.1918  142.9772  166.2617 C.ar    1  UNL1        0.0170
     11 C         140.8656  142.5183  165.0025 C.ar    1  UNL1       -0.0030
     12 C         140.5985  143.2270  163.7078 C.ar    1  UNL1       -0.0246
     13 C         141.3688  142.6117  162.5772 C.3     1  UNL1        0.0433
     14 C         141.3883  143.0122  161.1317 C.3     1  UNL1        0.0768
     15 C         140.4589  142.2685  167.5564 C.ar    1  UNL1        0.0791
     16 C         141.2091  142.8272  168.7289 C.ar    1  UNL1        0.0352
     17 C         141.2365  141.7806  169.8031 C.ar    1  UNL1        0.0804
     18 C         141.8837  141.9159  171.1495 C.3     1  UNL1        0.0540
     19 N         140.5032  140.5750  169.2944 N.ar    1  UNL1       -0.1736
     20 N         140.0225  140.8765  167.9059 N.ar    1  UNL1       -0.2492
     21 C         139.2426  139.9489  167.0220 C.3     1  UNL1        0.1537
     22 C         138.8903  143.0763  157.8129 C.3     1  UNL1        0.0665
     23 S         138.2736  141.7098  157.7656 S.3     1  UNL1       -0.0756
     24 C         139.5839  139.1736  160.3954 C.ar    1  UNL1        0.1669
     25 N         140.0492  138.5353  159.1203 N.ar    1  UNL1       -0.1282
     26 N         139.6149  139.4077  157.9799 N.ar    1  UNL1       -0.1221
     27 C         138.8813  140.5852  158.5503 C.ar    1  UNL1        0.1932
     28 N         138.8622  140.4405  160.0432 N.ar    1  UNL1       -0.2884
     29 C         138.2319  141.3951  161.0135 C.3     1  UNL1        0.1340
     30 C         145.1436  139.2805  164.4363 C.3     1  UNL1        0.0521
     31 C         143.8083  139.1202  163.7721 C.ar    1  UNL1        0.0593
     32 C         143.5901  139.6549  162.3878 C.ar    1  UNL1        0.0147
     33 C         142.2547  139.4945  161.7236 C.ar    1  UNL1        0.0028
     34 C         141.1375  138.7993  162.4439 C.ar    1  UNL1        0.0206
     35 C         139.8021  138.6389  161.7798 C.ar    1  UNL1        0.0374
     36 C         138.6850  137.9439  162.5000 C.ar    1  UNL1        0.0031
     37 C         138.9032  137.4092  163.8844 C.ar    1  UNL1        0.0016
     38 C         140.2386  137.5696  164.5486 C.ar    1  UNL1        0.0191
     39 C         141.3557  138.2647  163.8282 C.ar    1  UNL1        0.0810
     40 N         142.6911  138.4251  164.4924 N.ar    1  UNL1       -0.2497
@<TRIPOS>BOND
     1    30    31    1
     2    31    32   ar
     3    32    33   ar
     4    33    34   ar
     5    34    35   ar
     6    35    24    1
     7    24    25   ar
     8    25    26   ar
     9    26    27   ar
    10    27    23    1
    11    23    22    1
    12    22     1    1
    13     1     2    1
    14     2     3    1
    15     2     4    1
    16     4     5    1
    17     5     6    1
    18     6     7    1
    19     7     8   ar
    20     8     9   ar
    21     9    10   ar
    22    10    15    1
    23    15    16   ar
    24    16    17   ar
    25    17    18    1
    26    17    19   ar
    27    19    20   ar
    28    20    21    1
    29    10    11   ar
    30    11    12   ar
    31    12    13    1
    32    13    14    1
    33    27    28   ar
    34    28    29    1
    35    35    36   ar
    36    36    37   ar
    37    37    38   ar
    38    38    39   ar
    39    39    40   ar
    40    40    31   ar
    41    39    34   ar
    42    28    24   ar
    43    14     4    1
    44    12     7   ar
    45    20    15   ar
