@<TRIPOS>MOLECULE
*****
 33 37 0 0 0
SMALL
GASTEIGER

@<TRIPOS>ATOM
      1 C         139.2998  140.3891  163.3280 C.ar    1  UNL1       -0.0003
      2 C         138.2462  140.3575  164.3952 C.ar    1  UNL1        0.0001
      3 C         138.6353  140.1371  165.8269 C.ar    1  UNL1        0.0042
      4 C         140.0781  139.9483  166.1915 C.ar    1  UNL1        0.0497
      5 C         141.1317  139.9799  165.1244 C.ar    1  UNL1       -0.0161
      6 C         140.7425  140.2003  163.6926 C.ar    1  UNL1       -0.0041
      7 C         142.5744  139.7912  165.4890 C.3     1  UNL1        0.0480
      8 C         142.9635  139.5708  166.9207 C.3     1  UNL1        0.0984
      9 N         141.9099  139.5392  167.9880 N.am    1  UNL1       -0.2743
     10 C         140.4671  139.7279  167.6234 C.2     1  UNL1        0.2488
     11 O         139.4135  139.6963  168.6905 O.2     1  UNL1       -0.2699
     12 C         138.1326  141.0503  159.0325 C.ar    1  UNL1        0.0534
     13 C         139.1674  141.9279  159.6722 C.ar    1  UNL1        0.0045
     14 C         139.5564  141.7075  161.1040 C.ar    1  UNL1        0.0001
     15 C         138.9107  140.6095  161.8961 C.ar    1  UNL1       -0.0000
     16 C         137.8760  139.7319  161.2565 C.ar    1  UNL1        0.0001
     17 C         137.4869  139.9523  159.8247 C.ar    1  UNL1        0.0045
     18 O         137.9224  140.1704  156.5971 O.2     1  UNL1       -0.2701
     19 C         137.7436  141.2707  157.6008 C.2     1  UNL1        0.2458
     20 N         137.1758  142.5914  157.1727 N.am    1  UNL1       -0.3025
     21 H         137.0584  143.3136  157.8315 H       1  UNL1        0.1497
     22 C         136.7867  142.8119  155.7408 C.3     1  UNL1        0.0719
     23 C         135.8595  141.9498  154.9364 C.3     1  UNL1        0.0196
     24 C         135.7562  142.5382  153.5605 C.3     1  UNL1        0.0017
     25 C         136.6197  143.7640  153.5146 C.3     1  UNL1        0.0017
     26 C         137.2565  143.9331  154.8621 C.3     1  UNL1        0.0196
     27 C         142.2990  139.3188  169.4197 C.3     1  UNL1        0.1110
     28 C         142.5701  140.4932  170.3126 C.3     1  UNL1        0.0939
     29 N         141.6412  141.6710  170.3054 N.3     1  UNL1       -0.2712
     30 C         140.3632  141.7906  171.0816 C.3     1  UNL1        0.0722
     31 C         139.7593  143.1295  170.7767 C.3     1  UNL1        0.0188
     32 C         140.6641  143.8373  169.8121 C.3     1  UNL1        0.0188
     33 C         141.8272  142.9359  169.5209 C.3     1  UNL1        0.0722
@<TRIPOS>BOND
     1    18    19    2
     2    19    20   am
     3    20    22    1
     4    22    23    1
     5    23    24    1
     6    24    25    1
     7    25    26    1
     8    19    12    1
     9    12    13   ar
    10    13    14   ar
    11    14    15   ar
    12    15     1    1
    13     1     2   ar
    14     2     3   ar
    15     3     4   ar
    16     4     5   ar
    17     5     6   ar
    18     5     7    1
    19     7     8    1
    20     8     9    1
    21     9    27    1
    22    27    28    1
    23    28    29    1
    24    29    30    1
    25    30    31    1
    26    31    32    1
    27    32    33    1
    28     9    10   am
    29    10    11    2
    30    15    16   ar
    31    16    17   ar
    32    26    22    1
    33    17    12   ar
    34     6     1   ar
    35    33    29    1
    36    10     4    1
    37    20    21    1
@<TRIPOS>MOLECULE
*****
 33 37 0 0 0
SMALL
GASTEIGER

@<TRIPOS>ATOM
      1 C         142.7878  141.6847  162.1675 C.ar    1  UNL1       -0.0003
      2 C         142.5079  142.9623  162.9018 C.ar    1  UNL1        0.0001
      3 C         141.8097  142.9271  164.2289 C.ar    1  UNL1        0.0042
      4 C         141.3913  141.6143  164.8216 C.ar    1  UNL1        0.0497
      5 C         141.6711  140.3366  164.0873 C.ar    1  UNL1       -0.0161
      6 C         142.3694  140.3718  162.7603 C.ar    1  UNL1       -0.0041
      7 C         141.2527  139.0238  164.6801 C.3     1  UNL1        0.0480
      8 C         140.5544  138.9886  166.0071 C.3     1  UNL1        0.0984
      9 N         140.2745  140.2663  166.7415 N.am    1  UNL1       -0.2743
     10 C         140.6930  141.5791  166.1488 C.2     1  UNL1        0.2488
     11 O         140.4131  142.8568  166.8831 O.2     1  UNL1       -0.2699
     12 C         144.8826  141.7901  158.1862 C.ar    1  UNL1        0.0534
     13 C         143.9158  140.6859  158.4960 C.ar    1  UNL1        0.0045
     14 C         143.2175  140.6508  159.8231 C.ar    1  UNL1        0.0001
     15 C         143.4861  141.7199  160.8404 C.ar    1  UNL1       -0.0000
     16 C         144.4529  142.8241  160.5306 C.ar    1  UNL1        0.0001
     17 C         145.1512  142.8592  159.2035 C.ar    1  UNL1        0.0045
     18 O         145.1733  140.8756  155.7718 O.2     1  UNL1       -0.2701
     19 C         145.5809  141.8252  156.8591 C.2     1  UNL1        0.2458
     20 N         146.6866  142.8099  156.6193 N.am    1  UNL1       -0.3025
     21 H         146.9541  143.4332  157.3329 H       1  UNL1        0.1497
     22 C         147.3849  142.8451  155.2922 C.3     1  UNL1        0.0719
     23 C         147.1116  143.8108  154.1773 C.3     1  UNL1        0.0196
     24 C         148.0368  143.4833  153.0430 C.3     1  UNL1        0.0017
     25 C         148.8821  142.3152  153.4569 C.3     1  UNL1        0.0017
     26 C         148.4792  141.9208  154.8469 C.3     1  UNL1        0.0196
     27 C         139.5763  140.2311  168.0686 C.3     1  UNL1        0.1110
     28 C         140.3748  140.1198  169.3335 C.3     1  UNL1        0.0939
     29 N         141.4718  141.1029  169.6169 N.3     1  UNL1       -0.2712
     30 C         142.9161  140.9437  169.2446 C.3     1  UNL1        0.0722
     31 C         143.6541  142.1601  169.7199 C.3     1  UNL1        0.0188
     32 C         142.6657  143.0710  170.3859 C.3     1  UNL1        0.0188
     33 C         141.3170  142.4176  170.3223 C.3     1  UNL1        0.0722
@<TRIPOS>BOND
     1    18    19    2
     2    19    20   am
     3    20    22    1
     4    22    23    1
     5    23    24    1
     6    24    25    1
     7    25    26    1
     8    19    12    1
     9    12    13   ar
    10    13    14   ar
    11    14    15   ar
    12    15     1    1
    13     1     2   ar
    14     2     3   ar
    15     3     4   ar
    16     4     5   ar
    17     5     6   ar
    18     5     7    1
    19     7     8    1
    20     8     9    1
    21     9    27    1
    22    27    28    1
    23    28    29    1
    24    29    30    1
    25    30    31    1
    26    31    32    1
    27    32    33    1
    28     9    10   am
    29    10    11    2
    30    15    16   ar
    31    16    17   ar
    32    26    22    1
    33    17    12   ar
    34     6     1   ar
    35    33    29    1
    36    10     4    1
    37    20    21    1
@<TRIPOS>MOLECULE
*****
 33 37 0 0 0
SMALL
GASTEIGER

@<TRIPOS>ATOM
      1 C         140.5257  139.5757  158.7853 C.ar    1  UNL1       -0.0003
      2 C         140.8096  140.9720  158.3167 C.ar    1  UNL1        0.0001
      3 C         140.3136  142.1446  159.1096 C.ar    1  UNL1        0.0042
      4 C         139.5337  141.9209  160.3713 C.ar    1  UNL1        0.0497
      5 C         139.2498  140.5246  160.8399 C.ar    1  UNL1       -0.0161
      6 C         139.7458  139.3520  160.0469 C.ar    1  UNL1       -0.0041
      7 C         138.4699  140.3009  162.1015 C.3     1  UNL1        0.0480
      8 C         137.9739  141.4736  162.8945 C.3     1  UNL1        0.0984
      9 N         138.2578  142.8700  162.4259 N.am    1  UNL1       -0.2743
     10 C         139.0377  143.0937  161.1643 C.2     1  UNL1        0.2488
     11 O         139.3216  144.4900  160.6956 O.2     1  UNL1       -0.2699
     12 C         142.0138  136.0576  156.4064 C.ar    1  UNL1        0.0534
     13 C         142.8581  136.6306  157.5060 C.ar    1  UNL1        0.0045
     14 C         142.3620  137.8032  158.2989 C.ar    1  UNL1        0.0001
     15 C         141.0218  138.4030  157.9923 C.ar    1  UNL1       -0.0000
     16 C         140.1776  137.8301  156.8927 C.ar    1  UNL1        0.0001
     17 C         140.6736  136.6574  156.0997 C.ar    1  UNL1        0.0045
     18 O         142.9090  135.0646  154.1787 O.2     1  UNL1       -0.2701
     19 C         142.5099  134.8850  155.6134 C.2     1  UNL1        0.2458
     20 N         142.6068  133.5327  156.2553 N.am    1  UNL1       -0.3025
     21 H         142.3449  133.4149  157.1969 H       1  UNL1        0.1497
     22 C         143.1029  132.3600  155.4623 C.3     1  UNL1        0.0719
     23 C         142.4338  131.7619  154.2604 C.3     1  UNL1        0.0196
     24 C         143.2725  130.6117  153.7873 C.3     1  UNL1        0.0017
     25 C         144.4599  130.4990  154.6969 C.3     1  UNL1        0.0017
     26 C         144.3551  131.5794  155.7321 C.3     1  UNL1        0.0196
     27 C         137.7618  144.0426  163.2189 C.3     1  UNL1        0.1110
     28 C         138.6404  144.6691  164.2608 C.3     1  UNL1        0.0939
     29 N         140.1000  144.3272  164.3152 N.3     1  UNL1       -0.2712
     30 C         140.7075  143.1699  165.0511 C.3     1  UNL1        0.0722
     31 C         142.1912  143.2100  164.8340 C.3     1  UNL1        0.0188
     32 C         142.5006  144.3922  163.9640 C.3     1  UNL1        0.0188
     33 C         141.2081  145.0827  163.6434 C.3     1  UNL1        0.0722
@<TRIPOS>BOND
     1    18    19    2
     2    19    20   am
     3    20    22    1
     4    22    23    1
     5    23    24    1
     6    24    25    1
     7    25    26    1
     8    19    12    1
     9    12    13   ar
    10    13    14   ar
    11    14    15   ar
    12    15     1    1
    13     1     2   ar
    14     2     3   ar
    15     3     4   ar
    16     4     5   ar
    17     5     6   ar
    18     5     7    1
    19     7     8    1
    20     8     9    1
    21     9    27    1
    22    27    28    1
    23    28    29    1
    24    29    30    1
    25    30    31    1
    26    31    32    1
    27    32    33    1
    28     9    10   am
    29    10    11    2
    30    15    16   ar
    31    16    17   ar
    32    26    22    1
    33    17    12   ar
    34     6     1   ar
    35    33    29    1
    36    10     4    1
    37    20    21    1
@<TRIPOS>MOLECULE
*****
 33 37 0 0 0
SMALL
GASTEIGER

@<TRIPOS>ATOM
      1 C         142.8382  136.7598  156.8275 C.ar    1  UNL1       -0.0003
      2 C         143.3610  137.7335  155.8133 C.ar    1  UNL1        0.0001
      3 C         143.6638  139.1462  156.2165 C.ar    1  UNL1        0.0042
      4 C         143.4438  139.5852  157.6338 C.ar    1  UNL1        0.0497
      5 C         142.9211  138.6115  158.6480 C.ar    1  UNL1       -0.0161
      6 C         142.6183  137.1988  158.2448 C.ar    1  UNL1       -0.0041
      7 C         142.7011  139.0505  160.0654 C.3     1  UNL1        0.0480
      8 C         143.0039  140.4632  160.4685 C.3     1  UNL1        0.0984
      9 N         143.5267  141.4369  159.4543 N.am    1  UNL1       -0.2743
     10 C         143.7466  140.9980  158.0370 C.2     1  UNL1        0.2488
     11 O         144.2694  141.9716  157.0228 O.2     1  UNL1       -0.2699
     12 C         141.9298  132.5216  155.6181 C.ar    1  UNL1        0.0534
     13 C         142.9064  132.7931  156.7238 C.ar    1  UNL1        0.0045
     14 C         143.2092  134.2058  157.1269 C.ar    1  UNL1        0.0001
     15 C         142.5354  135.3470  156.4243 C.ar    1  UNL1       -0.0000
     16 C         141.5588  135.0756  155.3186 C.ar    1  UNL1        0.0001
     17 C         141.2560  133.6628  154.9155 C.ar    1  UNL1        0.0045
     18 O         142.7264  130.0893  155.1716 O.2     1  UNL1       -0.2701
     19 C         141.6270  131.1089  155.2150 C.2     1  UNL1        0.2458
     20 N         140.2249  130.7157  154.8553 N.am    1  UNL1       -0.3025
     21 H         139.5034  131.3849  154.8838 H       1  UNL1        0.1497
     22 C         139.9221  129.3029  154.4522 C.3     1  UNL1        0.0719
     23 C         139.9377  128.7627  153.0529 C.3     1  UNL1        0.0196
     24 C         139.5757  127.3083  153.1134 C.3     1  UNL1        0.0017
     25 C         139.3364  126.9497  154.5502 C.3     1  UNL1        0.0017
     26 C         139.5504  128.1824  155.3775 C.3     1  UNL1        0.0196
     27 C         143.8295  142.8496  159.8575 C.3     1  UNL1        0.1110
     28 C         142.7280  143.7422  160.3475 C.3     1  UNL1        0.0939
     29 N         142.7805  144.3045  161.7372 N.3     1  UNL1       -0.2712
     30 C         143.9965  144.3801  162.6123 C.3     1  UNL1        0.0722
     31 C         143.5937  145.0122  163.9117 C.3     1  UNL1        0.0188
     32 C         142.1289  145.3272  163.8396 C.3     1  UNL1        0.0188
     33 C         141.6264  144.8898  162.4956 C.3     1  UNL1        0.0722
@<TRIPOS>BOND
     1    18    19    2
     2    19    20   am
     3    20    22    1
     4    22    23    1
     5    23    24    1
     6    24    25    1
     7    25    26    1
     8    19    12    1
     9    12    13   ar
    10    13    14   ar
    11    14    15   ar
    12    15     1    1
    13     1     2   ar
    14     2     3   ar
    15     3     4   ar
    16     4     5   ar
    17     5     6   ar
    18     5     7    1
    19     7     8    1
    20     8     9    1
    21     9    27    1
    22    27    28    1
    23    28    29    1
    24    29    30    1
    25    30    31    1
    26    31    32    1
    27    32    33    1
    28     9    10   am
    29    10    11    2
    30    15    16   ar
    31    16    17   ar
    32    26    22    1
    33    17    12   ar
    34     6     1   ar
    35    33    29    1
    36    10     4    1
    37    20    21    1
@<TRIPOS>MOLECULE
*****
 33 37 0 0 0
SMALL
GASTEIGER

@<TRIPOS>ATOM
      1 C         139.9929  141.9073  163.2800 C.ar    1  UNL1       -0.0003
      2 C         138.7452  141.4143  163.9509 C.ar    1  UNL1        0.0001
      3 C         138.8224  140.7903  165.3127 C.ar    1  UNL1        0.0042
      4 C         140.1473  140.6592  166.0037 C.ar    1  UNL1        0.0497
      5 C         141.3950  141.1522  165.3328 C.ar    1  UNL1       -0.0161
      6 C         141.3178  141.7762  163.9710 C.ar    1  UNL1       -0.0041
      7 C         142.7200  141.0211  166.0237 C.3     1  UNL1        0.0480
      8 C         142.7972  140.3971  167.3855 C.3     1  UNL1        0.0984
      9 N         141.5495  139.9041  168.0565 N.am    1  UNL1       -0.2743
     10 C         140.2245  140.0351  167.3655 C.2     1  UNL1        0.2488
     11 O         138.9768  139.5421  168.0364 O.2     1  UNL1       -0.2699
     12 C         139.7613  143.7795  159.1945 C.ar    1  UNL1        0.0534
     13 C         140.7954  144.2462  160.1759 C.ar    1  UNL1        0.0045
     14 C         140.8725  143.6221  161.5377 C.ar    1  UNL1        0.0001
     15 C         139.9157  142.5314  161.9182 C.ar    1  UNL1       -0.0000
     16 C         138.8817  142.0647  160.9368 C.ar    1  UNL1        0.0001
     17 C         138.8045  142.6888  159.5749 C.ar    1  UNL1        0.0045
     18 O         139.0581  143.6502  156.6968 O.2     1  UNL1       -0.2701
     19 C         139.6842  144.4036  157.8327 C.2     1  UNL1        0.2458
     20 N         140.2332  145.7811  157.6068 N.am    1  UNL1       -0.3025
     21 H         140.6441  146.2756  158.3524 H       1  UNL1        0.1497
     22 C         140.1560  146.4052  156.2450 C.3     1  UNL1        0.0719
     23 C         141.0202  146.0625  155.0678 C.3     1  UNL1        0.0196
     24 C         140.5995  146.9271  153.9165 C.3     1  UNL1        0.0017
     25 C         139.4753  147.8042  154.3822 C.3     1  UNL1        0.0017
     26 C         139.2012  147.4817  155.8212 C.3     1  UNL1        0.0196
     27 C         141.6267  139.2800  169.4183 C.3     1  UNL1        0.1110
     28 C         141.3870  140.1155  170.6408 C.3     1  UNL1        0.0939
     29 N         141.1530  141.5911  170.5067 N.3     1  UNL1       -0.2712
     30 C         139.8182  142.2644  170.3842 C.3     1  UNL1        0.0722
     31 C         140.0528  143.7419  170.2734 C.3     1  UNL1        0.0188
     32 C         141.5326  143.9815  170.3275 C.3     1  UNL1        0.0188
     33 C         142.2125  142.6523  170.4718 C.3     1  UNL1        0.0722
@<TRIPOS>BOND
     1    18    19    2
     2    19    20   am
     3    20    22    1
     4    22    23    1
     5    23    24    1
     6    24    25    1
     7    25    26    1
     8    19    12    1
     9    12    13   ar
    10    13    14   ar
    11    14    15   ar
    12    15     1    1
    13     1     2   ar
    14     2     3   ar
    15     3     4   ar
    16     4     5   ar
    17     5     6   ar
    18     5     7    1
    19     7     8    1
    20     8     9    1
    21     9    27    1
    22    27    28    1
    23    28    29    1
    24    29    30    1
    25    30    31    1
    26    31    32    1
    27    32    33    1
    28     9    10   am
    29    10    11    2
    30    15    16   ar
    31    16    17   ar
    32    26    22    1
    33    17    12   ar
    34     6     1   ar
    35    33    29    1
    36    10     4    1
    37    20    21    1
@<TRIPOS>MOLECULE
*****
 33 37 0 0 0
SMALL
GASTEIGER

@<TRIPOS>ATOM
      1 C         140.7160  141.7245  164.8031 C.ar    1  UNL1       -0.0003
      2 C         140.3948  143.1251  164.3728 C.ar    1  UNL1        0.0001
      3 C         140.9611  143.6649  163.0930 C.ar    1  UNL1        0.0042
      4 C         141.8486  142.8042  162.2436 C.ar    1  UNL1        0.0497
      5 C         142.1697  141.4036  162.6739 C.ar    1  UNL1       -0.0161
      6 C         141.6034  140.8638  163.9537 C.ar    1  UNL1       -0.0041
      7 C         143.0572  140.5429  161.8245 C.3     1  UNL1        0.0480
      8 C         143.6235  141.0827  160.5447 C.3     1  UNL1        0.0984
      9 N         143.3023  142.4833  160.1143 N.am    1  UNL1       -0.2743
     10 C         142.4149  143.3441  160.9637 C.2     1  UNL1        0.2488
     11 O         142.0937  144.7446  160.5334 O.2     1  UNL1       -0.2699
     12 C         139.0171  140.1048  168.6425 C.ar    1  UNL1        0.0534
     13 C         138.6398  139.4791  167.3324 C.ar    1  UNL1        0.0045
     14 C         139.2061  140.0190  166.0527 C.ar    1  UNL1        0.0001
     15 C         140.1497  141.1846  166.0829 C.ar    1  UNL1       -0.0000
     16 C         140.5269  141.8104  167.3929 C.ar    1  UNL1        0.0001
     17 C         139.9606  141.2705  168.6727 C.ar    1  UNL1        0.0045
     18 O         139.2343  139.6790  171.1962 O.2     1  UNL1       -0.2701
     19 C         138.4508  139.5649  169.9222 C.2     1  UNL1        0.2458
     20 N         137.1009  138.9109  169.9280 N.am    1  UNL1       -0.3025
     21 H         136.5866  138.8360  169.0918 H       1  UNL1        0.1497
     22 C         136.5345  138.3710  171.2078 C.3     1  UNL1        0.0719
     23 C         135.3805  138.9471  171.9735 C.3     1  UNL1        0.0196
     24 C         135.1555  138.0923  173.1854 C.3     1  UNL1        0.0017
     25 C         136.1704  136.9880  173.1687 C.3     1  UNL1        0.0017
     26 C         137.0227  137.1602  171.9464 C.3     1  UNL1        0.0196
     27 C         143.8686  143.0232  158.8345 C.3     1  UNL1        0.1110
     28 C         145.1836  142.5143  158.3227 C.3     1  UNL1        0.0939
     29 N         145.2564  141.8347  156.9874 N.3     1  UNL1       -0.2712
     30 C         145.6237  142.4846  155.6863 C.3     1  UNL1        0.0722
     31 C         145.5690  141.4375  154.6136 C.3     1  UNL1        0.0188
     32 C         145.1680  140.1406  155.2518 C.3     1  UNL1        0.0188
     33 C         144.9749  140.3861  156.7189 C.3     1  UNL1        0.0722
@<TRIPOS>BOND
     1    18    19    2
     2    19    20   am
     3    20    22    1
     4    22    23    1
     5    23    24    1
     6    24    25    1
     7    25    26    1
     8    19    12    1
     9    12    13   ar
    10    13    14   ar
    11    14    15   ar
    12    15     1    1
    13     1     2   ar
    14     2     3   ar
    15     3     4   ar
    16     4     5   ar
    17     5     6   ar
    18     5     7    1
    19     7     8    1
    20     8     9    1
    21     9    27    1
    22    27    28    1
    23    28    29    1
    24    29    30    1
    25    30    31    1
    26    31    32    1
    27    32    33    1
    28     9    10   am
    29    10    11    2
    30    15    16   ar
    31    16    17   ar
    32    26    22    1
    33    17    12   ar
    34     6     1   ar
    35    33    29    1
    36    10     4    1
    37    20    21    1
@<TRIPOS>MOLECULE
*****
 33 37 0 0 0
SMALL
GASTEIGER

@<TRIPOS>ATOM
      1 C         140.8342  139.4752  158.3243 C.ar    1  UNL1       -0.0003
      2 C         139.4974  139.5423  159.0014 C.ar    1  UNL1        0.0001
      3 C         139.0557  140.8129  159.6649 C.ar    1  UNL1        0.0042
      4 C         139.9508  142.0165  159.6513 C.ar    1  UNL1        0.0497
      5 C         141.2876  141.9495  158.9742 C.ar    1  UNL1       -0.0161
      6 C         141.7292  140.6788  158.3107 C.ar    1  UNL1       -0.0041
      7 C         142.1827  143.1530  158.9606 C.3     1  UNL1        0.0480
      8 C         141.7410  144.4237  159.6240 C.3     1  UNL1        0.0984
      9 N         140.4042  144.4909  160.3012 N.am    1  UNL1       -0.2743
     10 C         139.5091  143.2873  160.3148 C.2     1  UNL1        0.2488
     11 O         138.1723  143.3544  160.9919 O.2     1  UNL1       -0.2699
     12 C         142.1593  135.6631  156.3338 C.ar    1  UNL1        0.0534
     13 C         140.8867  136.3307  155.9037 C.ar    1  UNL1        0.0045
     14 C         140.4450  137.6013  156.5672 C.ar    1  UNL1        0.0001
     15 C         141.2759  138.2044  157.6608 C.ar    1  UNL1       -0.0000
     16 C         142.5484  137.5369  158.0909 C.ar    1  UNL1        0.0001
     17 C         142.9902  136.2662  157.4274 C.ar    1  UNL1        0.0045
     18 O         142.7620  134.3413  154.1798 O.2     1  UNL1       -0.2701
     19 C         142.6010  134.3924  155.6703 C.2     1  UNL1        0.2458
     20 N         142.8817  133.1728  156.4972 N.am    1  UNL1       -0.3025
     21 H         142.7760  133.2064  157.4754 H       1  UNL1        0.1497
     22 C         143.3234  131.9021  155.8337 C.3     1  UNL1        0.0719
     23 C         144.7205  131.3564  155.8156 C.3     1  UNL1        0.0196
     24 C         144.7061  130.0711  155.0426 C.3     1  UNL1        0.0017
     25 C         143.3001  129.8223  154.5829 C.3     1  UNL1        0.0017
     26 C         142.4455  130.9540  155.0718 C.3     1  UNL1        0.0196
     27 C         139.9625  145.7615  160.9647 C.3     1  UNL1        0.1110
     28 C         140.0520  145.8995  162.4556 C.3     1  UNL1        0.0939
     29 N         140.9848  145.0210  163.2354 N.3     1  UNL1       -0.2712
     30 C         142.4790  145.1448  163.2835 C.3     1  UNL1        0.0722
     31 C         143.0049  144.0647  164.1819 C.3     1  UNL1        0.0188
     32 C         141.8357  143.2734  164.6889 C.3     1  UNL1        0.0188
     33 C         140.5873  143.8644  164.1040 C.3     1  UNL1        0.0722
@<TRIPOS>BOND
     1    18    19    2
     2    19    20   am
     3    20    22    1
     4    22    23    1
     5    23    24    1
     6    24    25    1
     7    25    26    1
     8    19    12    1
     9    12    13   ar
    10    13    14   ar
    11    14    15   ar
    12    15     1    1
    13     1     2   ar
    14     2     3   ar
    15     3     4   ar
    16     4     5   ar
    17     5     6   ar
    18     5     7    1
    19     7     8    1
    20     8     9    1
    21     9    27    1
    22    27    28    1
    23    28    29    1
    24    29    30    1
    25    30    31    1
    26    31    32    1
    27    32    33    1
    28     9    10   am
    29    10    11    2
    30    15    16   ar
    31    16    17   ar
    32    26    22    1
    33    17    12   ar
    34     6     1   ar
    35    33    29    1
    36    10     4    1
    37    20    21    1
@<TRIPOS>MOLECULE
*****
 33 37 0 0 0
SMALL
GASTEIGER

@<TRIPOS>ATOM
      1 C         139.7317  142.5479  158.9125 C.ar    1  UNL1       -0.0003
      2 C         140.7103  141.4414  158.6520 C.ar    1  UNL1        0.0001
      3 C         140.7276  140.2314  159.5382 C.ar    1  UNL1        0.0042
      4 C         139.7663  140.1278  160.6850 C.ar    1  UNL1        0.0497
      5 C         138.7876  141.2343  160.9456 C.ar    1  UNL1       -0.0161
      6 C         138.7703  142.4443  160.0593 C.ar    1  UNL1       -0.0041
      7 C         137.8263  141.1308  162.0923 C.3     1  UNL1        0.0480
      8 C         137.8436  139.9207  162.9786 C.3     1  UNL1        0.0984
      9 N         138.8223  138.8141  162.7181 N.am    1  UNL1       -0.2743
     10 C         139.7836  138.9177  161.5713 C.2     1  UNL1        0.2488
     11 O         140.7622  137.8112  161.3107 O.2     1  UNL1       -0.2699
     12 C         139.6797  146.1782  156.2538 C.ar    1  UNL1        0.0534
     13 C         139.0917  144.8857  155.7700 C.ar    1  UNL1        0.0045
     14 C         139.1091  143.6757  156.6563 C.ar    1  UNL1        0.0001
     15 C         139.7143  143.7580  158.0263 C.ar    1  UNL1       -0.0000
     16 C         140.3023  145.0504  158.5100 C.ar    1  UNL1        0.0001
     17 C         140.2850  146.2605  157.6237 C.ar    1  UNL1        0.0045
     18 O         140.1813  147.2968  153.9632 O.2     1  UNL1       -0.2701
     19 C         139.6623  147.3882  155.3675 C.2     1  UNL1        0.2458
     20 N         139.1259  148.6896  155.8856 N.am    1  UNL1       -0.3025
     21 H         138.7853  148.7496  156.8074 H       1  UNL1        0.1497
     22 C         139.1086  149.8998  154.9994 C.3     1  UNL1        0.0719
     23 C         139.6579  149.9800  153.6059 C.3     1  UNL1        0.0196
     24 C         139.4277  151.3719  153.0963 C.3     1  UNL1        0.0017
     25 C         138.7360  152.1518  154.1749 C.3     1  UNL1        0.0017
     26 C         138.5388  151.2420  155.3510 C.3     1  UNL1        0.0196
     27 C         138.8396  137.6041  163.6043 C.3     1  UNL1        0.1110
     28 C         139.2929  137.7244  165.0291 C.3     1  UNL1        0.0939
     29 N         140.6254  138.3377  165.3429 N.3     1  UNL1       -0.2712
     30 C         141.9478  137.9093  164.7792 C.3     1  UNL1        0.0722
     31 C         143.0091  138.7939  165.3634 C.3     1  UNL1        0.0188
     32 C         142.3426  139.7690  166.2881 C.3     1  UNL1        0.0188
     33 C         140.8694  139.4870  166.2754 C.3     1  UNL1        0.0722
@<TRIPOS>BOND
     1    18    19    2
     2    19    20   am
     3    20    22    1
     4    22    23    1
     5    23    24    1
     6    24    25    1
     7    25    26    1
     8    19    12    1
     9    12    13   ar
    10    13    14   ar
    11    14    15   ar
    12    15     1    1
    13     1     2   ar
    14     2     3   ar
    15     3     4   ar
    16     4     5   ar
    17     5     6   ar
    18     5     7    1
    19     7     8    1
    20     8     9    1
    21     9    27    1
    22    27    28    1
    23    28    29    1
    24    29    30    1
    25    30    31    1
    26    31    32    1
    27    32    33    1
    28     9    10   am
    29    10    11    2
    30    15    16   ar
    31    16    17   ar
    32    26    22    1
    33    17    12   ar
    34     6     1   ar
    35    33    29    1
    36    10     4    1
    37    20    21    1
@<TRIPOS>MOLECULE
*****
 33 37 0 0 0
SMALL
GASTEIGER

@<TRIPOS>ATOM
      1 C         140.6180  140.6248  165.2136 C.ar    1  UNL1       -0.0003
      2 C         139.7059  141.8074  165.3527 C.ar    1  UNL1        0.0001
      3 C         139.0133  142.3664  164.1454 C.ar    1  UNL1        0.0042
      4 C         139.2329  141.7429  162.7989 C.ar    1  UNL1        0.0497
      5 C         140.1450  140.5603  162.6597 C.ar    1  UNL1       -0.0161
      6 C         140.8376  140.0012  163.8671 C.ar    1  UNL1       -0.0041
      7 C         140.3646  139.9368  161.3133 C.3     1  UNL1        0.0480
      8 C         139.6720  140.4959  160.1059 C.3     1  UNL1        0.0984
      9 N         138.7598  141.6785  160.2450 N.am    1  UNL1       -0.2743
     10 C         138.5402  142.3020  161.5915 C.2     1  UNL1        0.2488
     11 O         137.6281  143.4846  161.7306 O.2     1  UNL1       -0.2699
     12 C         142.6959  138.9474  168.8356 C.ar    1  UNL1        0.0534
     13 C         143.2405  138.6743  167.4648 C.ar    1  UNL1        0.0045
     14 C         142.5479  139.2334  166.2575 C.ar    1  UNL1        0.0001
     15 C         141.3107  140.0656  166.4209 C.ar    1  UNL1       -0.0000
     16 C         140.7661  140.3387  167.7916 C.ar    1  UNL1        0.0001
     17 C         141.4587  139.7796  168.9990 C.ar    1  UNL1        0.0045
     18 O         143.5172  139.2185  171.2855 O.2     1  UNL1       -0.2701
     19 C         143.3886  138.3882  170.0429 C.2     1  UNL1        0.2458
     20 N         143.9526  136.9988  170.0076 N.am    1  UNL1       -0.3025
     21 H         143.8682  136.4538  169.1920 H       1  UNL1        0.1497
     22 C         144.6453  136.4396  171.2149 C.3     1  UNL1        0.0719
     23 C         146.0110  136.8217  171.7038 C.3     1  UNL1        0.0196
     24 C         146.3037  136.0184  172.9363 C.3     1  UNL1        0.0017
     25 C         145.1188  135.1399  173.2091 C.3     1  UNL1        0.0017
     26 C         144.0940  135.4002  172.1453 C.3     1  UNL1        0.0196
     27 C         138.0672  142.2376  159.0377 C.3     1  UNL1        0.1110
     28 C         137.9646  141.4183  157.7854 C.3     1  UNL1        0.0939
     29 N         137.2485  141.9669  156.5869 N.3     1  UNL1       -0.2712
     30 C         137.4973  143.2994  155.9447 C.3     1  UNL1        0.0722
     31 C         136.5605  143.4353  154.7810 C.3     1  UNL1        0.0188
     32 C         135.7327  142.1867  154.7041 C.3     1  UNL1        0.0188
     33 C         136.1579  141.2792  155.8202 C.3     1  UNL1        0.0722
@<TRIPOS>BOND
     1    18    19    2
     2    19    20   am
     3    20    22    1
     4    22    23    1
     5    23    24    1
     6    24    25    1
     7    25    26    1
     8    19    12    1
     9    12    13   ar
    10    13    14   ar
    11    14    15   ar
    12    15     1    1
    13     1     2   ar
    14     2     3   ar
    15     3     4   ar
    16     4     5   ar
    17     5     6   ar
    18     5     7    1
    19     7     8    1
    20     8     9    1
    21     9    27    1
    22    27    28    1
    23    28    29    1
    24    29    30    1
    25    30    31    1
    26    31    32    1
    27    32    33    1
    28     9    10   am
    29    10    11    2
    30    15    16   ar
    31    16    17   ar
    32    26    22    1
    33    17    12   ar
    34     6     1   ar
    35    33    29    1
    36    10     4    1
    37    20    21    1
