@<TRIPOS>MOLECULE
*****
 39 42 0 0 0
SMALL
GASTEIGER

@<TRIPOS>ATOM
      1 C         140.8353  139.6965  162.8512 C.3     1  UNL1        0.1325
      2 C         141.1477  140.5743  161.6756 C.ar    1  UNL1        0.1400
      3 O         142.4202  140.3739  160.9072 O.2     1  UNL1       -0.4562
      4 C         142.7326  141.2517  159.7315 C.ar    1  UNL1        0.1487
      5 C         144.0051  141.0513  158.9631 C.ar    1  UNL1        0.0490
      6 C         144.3174  141.9290  157.7875 C.ar    1  UNL1        0.0607
      7 CL        145.5900  141.7287  157.0191 Cl      1  UNL1       -0.0821
      8 C         143.3572  143.0071  157.3804 C.ar    1  UNL1        0.0117
      9 C         142.0847  143.2075  158.1488 C.ar    1  UNL1        0.0071
     10 C         141.7724  142.3298  159.3244 C.ar    1  UNL1        0.0733
     11 C         140.4998  142.5301  160.0929 C.ar    1  UNL1        0.1975
     12 O         139.5397  143.6082  159.6857 O.2     1  UNL1       -0.2867
     13 C         140.1875  141.6524  161.2684 C.ar    1  UNL1        0.0531
     14 C         138.9149  141.8527  162.0369 C.3     1  UNL1        0.0587
     15 C         138.8455  142.8939  163.1145 C.ar    1  UNL1       -0.0176
     16 C         140.0233  143.7865  163.3719 C.ar    1  UNL1       -0.0039
     17 C         139.9539  144.8277  164.4495 C.ar    1  UNL1       -0.0003
     18 C         138.7067  144.9763  165.2696 C.ar    1  UNL1       -0.0000
     19 C         137.5290  144.0837  165.0121 C.ar    1  UNL1       -0.0003
     20 C         137.5984  143.0425  163.9346 C.ar    1  UNL1       -0.0039
     21 C         139.7830  140.2389  165.1640 C.2     1  UNL1        0.2493
     22 O         138.4640  139.7057  164.6889 O.2     1  UNL1       -0.2699
     23 N         140.9687  140.2343  164.2451 N.am    1  UNL1       -0.2708
     24 C         140.3168  142.3901  170.7396 C.3     1  UNL1        0.0310
     25 C         140.1833  141.8523  169.3457 C.ar    1  UNL1       -0.0218
     26 C         140.5182  142.7226  168.1708 C.ar    1  UNL1       -0.0041
     27 C         140.3847  142.1848  166.7769 C.ar    1  UNL1        0.0042
     28 C         139.9165  140.7767  166.5579 C.ar    1  UNL1        0.0536
     29 C         139.5816  139.9063  167.7328 C.ar    1  UNL1        0.0042
     30 C         139.7150  140.4441  169.1267 C.ar    1  UNL1       -0.0041
     31 C         142.2878  140.7675  164.7202 C.3     1  UNL1        0.0955
     32 C         143.4534  139.8395  164.8937 C.3     1  UNL1        0.0383
     33 C         144.5626  139.8318  163.8840 C.3     1  UNL1        0.0669
     34 N         144.4458  138.9904  162.6477 N.3     1  UNL1       -0.3211
     35 H         144.4439  138.0039  162.9068 H       1  UNL1        0.1189
     36 H         145.2369  139.1789  162.0322 H       1  UNL1        0.1189
     37 C         140.3895  138.2811  162.6329 C.3     1  UNL1        0.0256
     38 C         141.0444  137.1635  163.3892 C.3     1  UNL1        0.0022
     39 C         139.2888  137.9833  161.6583 C.3     1  UNL1        0.0022
@<TRIPOS>BOND
     1    24    25    1
     2    25    26   ar
     3    26    27   ar
     4    27    28   ar
     5    28    21    1
     6    21    22    2
     7    21    23   am
     8    23    31    1
     9    31    32    1
    10    32    33    1
    11    33    34    1
    12    23     1    1
    13     1     2    1
    14     2     3   ar
    15     3     4   ar
    16     4     5   ar
    17     5     6   ar
    18     6     7    1
    19     6     8   ar
    20     8     9   ar
    21     9    10   ar
    22    10    11   ar
    23    11    12    2
    24    11    13   ar
    25    13    14    1
    26    14    15    1
    27    15    16   ar
    28    16    17   ar
    29    17    18   ar
    30    18    19   ar
    31    19    20   ar
    32     1    37    1
    33    37    38    1
    34    37    39    1
    35    28    29   ar
    36    29    30   ar
    37    30    25   ar
    38    13     2   ar
    39    20    15   ar
    40    10     4   ar
    41    34    35    1
    42    34    36    1
@<TRIPOS>MOLECULE
*****
 39 42 0 0 0
SMALL
GASTEIGER

@<TRIPOS>ATOM
      1 C         141.9530  143.0790  162.9943 C.3     1  UNL1        0.1325
      2 C         141.5049  142.6101  161.6417 C.ar    1  UNL1        0.1400
      3 O         140.9046  143.5836  160.6713 O.2     1  UNL1       -0.4562
      4 C         140.4565  143.1147  159.3187 C.ar    1  UNL1        0.1487
      5 C         139.8562  144.0883  158.3483 C.ar    1  UNL1        0.0490
      6 C         139.4082  143.6193  156.9958 C.ar    1  UNL1        0.0607
      7 CL        138.8078  144.5929  156.0253 Cl      1  UNL1       -0.0821
      8 C         139.5605  142.1768  156.6137 C.ar    1  UNL1        0.0117
      9 C         140.1609  141.2033  157.5841 C.ar    1  UNL1        0.0071
     10 C         140.6089  141.6722  158.9366 C.ar    1  UNL1        0.0733
     11 C         141.2093  140.6987  159.9071 C.ar    1  UNL1        0.1975
     12 O         141.3616  139.2562  159.5250 O.2     1  UNL1       -0.2867
     13 C         141.6573  141.1676  161.2596 C.ar    1  UNL1        0.0531
     14 C         142.2577  140.1940  162.2301 C.3     1  UNL1        0.0587
     15 C         141.3718  139.2619  163.0022 C.ar    1  UNL1       -0.0176
     16 C         139.8840  139.4523  162.9822 C.ar    1  UNL1       -0.0039
     17 C         138.9981  138.5202  163.7544 C.ar    1  UNL1       -0.0003
     18 C         139.5999  137.3976  164.5466 C.ar    1  UNL1       -0.0000
     19 C         141.0876  137.2071  164.5666 C.ar    1  UNL1       -0.0003
     20 C         141.9735  138.1393  163.7944 C.ar    1  UNL1       -0.0039
     21 C         141.8608  141.9633  165.3388 C.2     1  UNL1        0.2493
     22 O         143.3189  141.6269  165.2361 O.2     1  UNL1       -0.2699
     23 N         141.1777  142.6894  164.2179 N.am    1  UNL1       -0.2708
     24 C         138.7599  140.4047  170.2332 C.3     1  UNL1        0.0310
     25 C         139.5351  140.7943  169.0096 C.ar    1  UNL1       -0.0218
     26 C         140.2759  142.0981  168.9748 C.ar    1  UNL1       -0.0041
     27 C         141.0511  142.4878  167.7512 C.ar    1  UNL1        0.0042
     28 C         141.0855  141.5736  166.5624 C.ar    1  UNL1        0.0536
     29 C         140.3447  140.2697  166.5973 C.ar    1  UNL1        0.0042
     30 C         139.5695  139.8801  167.8209 C.ar    1  UNL1       -0.0041
     31 C         139.7196  143.0257  164.3206 C.3     1  UNL1        0.0955
     32 C         139.2565  144.4335  164.0888 C.3     1  UNL1        0.0383
     33 C         138.4405  144.7642  162.8744 C.3     1  UNL1        0.0669
     34 N         137.9126  143.6633  162.0029 N.3     1  UNL1       -0.3211
     35 H         138.6919  143.1785  161.5580 H       1  UNL1        0.1189
     36 H         137.3046  144.0592  161.2860 H       1  UNL1        0.1189
     37 C         143.1762  143.9375  163.1233 C.3     1  UNL1        0.0256
     38 C         144.4481  143.5390  162.4353 C.3     1  UNL1        0.0022
     39 C         143.1274  145.1946  163.9401 C.3     1  UNL1        0.0022
@<TRIPOS>BOND
     1    24    25    1
     2    25    26   ar
     3    26    27   ar
     4    27    28   ar
     5    28    21    1
     6    21    22    2
     7    21    23   am
     8    23    31    1
     9    31    32    1
    10    32    33    1
    11    33    34    1
    12    23     1    1
    13     1     2    1
    14     2     3   ar
    15     3     4   ar
    16     4     5   ar
    17     5     6   ar
    18     6     7    1
    19     6     8   ar
    20     8     9   ar
    21     9    10   ar
    22    10    11   ar
    23    11    12    2
    24    11    13   ar
    25    13    14    1
    26    14    15    1
    27    15    16   ar
    28    16    17   ar
    29    17    18   ar
    30    18    19   ar
    31    19    20   ar
    32     1    37    1
    33    37    38    1
    34    37    39    1
    35    28    29   ar
    36    29    30   ar
    37    30    25   ar
    38    13     2   ar
    39    20    15   ar
    40    10     4   ar
    41    34    35    1
    42    34    36    1
@<TRIPOS>MOLECULE
*****
 39 42 0 0 0
SMALL
GASTEIGER

@<TRIPOS>ATOM
      1 C         141.9225  142.9311  163.3089 C.3     1  UNL1        0.1325
      2 C         141.7773  142.1193  162.0559 C.ar    1  UNL1        0.1400
      3 O         142.8951  142.0759  161.0567 O.2     1  UNL1       -0.4562
      4 C         142.7499  141.2641  159.8036 C.ar    1  UNL1        0.1487
      5 C         143.8678  141.2207  158.8044 C.ar    1  UNL1        0.0490
      6 C         143.7225  140.4090  157.5514 C.ar    1  UNL1        0.0607
      7 CL        144.8404  140.3656  156.5521 Cl      1  UNL1       -0.0821
      8 C         142.4595  139.6407  157.2977 C.ar    1  UNL1        0.0117
      9 C         141.3416  139.6841  158.2969 C.ar    1  UNL1        0.0071
     10 C         141.4869  140.4959  159.5499 C.ar    1  UNL1        0.0733
     11 C         140.3690  140.5393  160.5492 C.ar    1  UNL1        0.1975
     12 O         139.1059  139.7710  160.2955 O.2     1  UNL1       -0.2867
     13 C         140.5142  141.3510  161.8022 C.ar    1  UNL1        0.0531
     14 C         139.3964  141.3945  162.8015 C.3     1  UNL1        0.0587
     15 C         139.2289  140.2774  163.7885 C.ar    1  UNL1       -0.0176
     16 C         138.2404  140.4086  164.9091 C.ar    1  UNL1       -0.0039
     17 C         138.0729  139.2916  165.8961 C.ar    1  UNL1       -0.0003
     18 C         138.8940  138.0434  165.7625 C.ar    1  UNL1       -0.0000
     19 C         139.8825  137.9122  164.6420 C.ar    1  UNL1       -0.0003
     20 C         140.0499  139.0292  163.6550 C.ar    1  UNL1       -0.0039
     21 C         141.4602  142.4026  165.8104 C.2     1  UNL1        0.2493
     22 O         140.1952  143.2060  165.7463 O.2     1  UNL1       -0.2699
     23 N         142.3239  142.2651  164.5917 N.am    1  UNL1       -0.2708
     24 C         143.0659  139.7387  170.9412 C.3     1  UNL1        0.0310
     25 C         142.6645  140.4047  169.6585 C.ar    1  UNL1       -0.0218
     26 C         141.7040  139.7243  168.7288 C.ar    1  UNL1       -0.0041
     27 C         141.3025  140.3903  167.4461 C.ar    1  UNL1        0.0042
     28 C         141.8617  141.7366  167.0931 C.ar    1  UNL1        0.0536
     29 C         142.8222  142.4171  168.0228 C.ar    1  UNL1        0.0042
     30 C         143.2237  141.7511  169.3055 C.ar    1  UNL1       -0.0041
     31 C         143.5890  141.4617  164.6557 C.3     1  UNL1        0.0955
     32 C         144.9112  142.1231  164.4021 C.3     1  UNL1        0.0383
     33 C         145.7746  141.6622  163.2654 C.3     1  UNL1        0.0669
     34 N         145.6819  142.3401  161.9305 N.3     1  UNL1       -0.3211
     35 H         144.7614  142.1694  161.5257 H       1  UNL1        0.1189
     36 H         146.4006  141.9681  161.3097 H       1  UNL1        0.1189
     37 C         141.6663  144.4087  163.2792 C.3     1  UNL1        0.0256
     38 C         142.6538  145.3536  163.8972 C.3     1  UNL1        0.0022
     39 C         140.4227  144.9414  162.6315 C.3     1  UNL1        0.0022
@<TRIPOS>BOND
     1    24    25    1
     2    25    26   ar
     3    26    27   ar
     4    27    28   ar
     5    28    21    1
     6    21    22    2
     7    21    23   am
     8    23    31    1
     9    31    32    1
    10    32    33    1
    11    33    34    1
    12    23     1    1
    13     1     2    1
    14     2     3   ar
    15     3     4   ar
    16     4     5   ar
    17     5     6   ar
    18     6     7    1
    19     6     8   ar
    20     8     9   ar
    21     9    10   ar
    22    10    11   ar
    23    11    12    2
    24    11    13   ar
    25    13    14    1
    26    14    15    1
    27    15    16   ar
    28    16    17   ar
    29    17    18   ar
    30    18    19   ar
    31    19    20   ar
    32     1    37    1
    33    37    38    1
    34    37    39    1
    35    28    29   ar
    36    29    30   ar
    37    30    25   ar
    38    13     2   ar
    39    20    15   ar
    40    10     4   ar
    41    34    35    1
    42    34    36    1
@<TRIPOS>MOLECULE
*****
 39 42 0 0 0
SMALL
GASTEIGER

@<TRIPOS>ATOM
      1 C         143.0174  141.6489  163.2149 C.3     1  UNL1        0.1325
      2 C         142.0923  141.8791  162.0567 C.ar    1  UNL1        0.1400
      3 O         142.1641  143.1621  161.2829 O.2     1  UNL1       -0.4562
      4 C         141.2390  143.3922  160.1247 C.ar    1  UNL1        0.1487
      5 C         141.3109  144.6752  159.3509 C.ar    1  UNL1        0.0490
      6 C         140.3858  144.9053  158.1928 C.ar    1  UNL1        0.0607
      7 CL        140.4576  146.1884  157.4190 Cl      1  UNL1       -0.0821
      8 C         139.3889  143.8525  157.8085 C.ar    1  UNL1        0.0117
      9 C         139.3171  142.5695  158.5823 C.ar    1  UNL1        0.0071
     10 C         140.2421  142.3394  159.7404 C.ar    1  UNL1        0.0733
     11 C         140.1703  141.0564  160.5142 C.ar    1  UNL1        0.1975
     12 O         139.1734  140.0035  160.1299 O.2     1  UNL1       -0.2867
     13 C         141.0954  140.8262  161.6723 C.ar    1  UNL1        0.0531
     14 C         141.0236  139.5432  162.4462 C.3     1  UNL1        0.0587
     15 C         140.0319  139.3948  163.5618 C.ar    1  UNL1       -0.0176
     16 C         139.9273  138.0955  164.3043 C.ar    1  UNL1       -0.0039
     17 C         138.9356  137.9471  165.4199 C.ar    1  UNL1       -0.0003
     18 C         138.0487  139.0979  165.7931 C.ar    1  UNL1       -0.0000
     19 C         138.1534  140.3970  165.0507 C.ar    1  UNL1       -0.0003
     20 C         139.1450  140.5454  163.9350 C.ar    1  UNL1       -0.0039
     21 C         142.5806  140.8888  165.6606 C.2     1  UNL1        0.2493
     22 O         143.0513  139.5071  165.3153 O.2     1  UNL1       -0.2699
     23 N         142.5636  141.9598  164.6104 N.am    1  UNL1       -0.2708
     24 C         140.7658  142.1323  171.2427 C.3     1  UNL1        0.0310
     25 C         141.2195  141.8215  169.8472 C.ar    1  UNL1       -0.0218
     26 C         140.3316  141.0374  168.9270 C.ar    1  UNL1       -0.0041
     27 C         140.7853  140.7265  167.5315 C.ar    1  UNL1        0.0042
     28 C         142.1269  141.1997  167.0561 C.ar    1  UNL1        0.0536
     29 C         143.0149  141.9839  167.9763 C.ar    1  UNL1        0.0042
     30 C         142.5612  142.2947  169.3718 C.ar    1  UNL1       -0.0041
     31 C         142.0930  143.3415  164.9557 C.3     1  UNL1        0.0955
     32 C         140.6325  143.6760  164.8844 C.3     1  UNL1        0.0383
     33 C         140.1114  144.5247  163.7627 C.3     1  UNL1        0.0669
     34 N         140.9915  145.5675  163.1399 N.3     1  UNL1       -0.3211
     35 H         141.1933  146.2956  163.8252 H       1  UNL1        0.1189
     36 H         140.5154  145.9789  162.3371 H       1  UNL1        0.1189
     37 C         144.3961  141.1079  162.9775 C.3     1  UNL1        0.0256
     38 C         145.5814  141.7694  163.6155 C.3     1  UNL1        0.0022
     39 C         144.5894  139.9053  162.1020 C.3     1  UNL1        0.0022
@<TRIPOS>BOND
     1    24    25    1
     2    25    26   ar
     3    26    27   ar
     4    27    28   ar
     5    28    21    1
     6    21    22    2
     7    21    23   am
     8    23    31    1
     9    31    32    1
    10    32    33    1
    11    33    34    1
    12    23     1    1
    13     1     2    1
    14     2     3   ar
    15     3     4   ar
    16     4     5   ar
    17     5     6   ar
    18     6     7    1
    19     6     8   ar
    20     8     9   ar
    21     9    10   ar
    22    10    11   ar
    23    11    12    2
    24    11    13   ar
    25    13    14    1
    26    14    15    1
    27    15    16   ar
    28    16    17   ar
    29    17    18   ar
    30    18    19   ar
    31    19    20   ar
    32     1    37    1
    33    37    38    1
    34    37    39    1
    35    28    29   ar
    36    29    30   ar
    37    30    25   ar
    38    13     2   ar
    39    20    15   ar
    40    10     4   ar
    41    34    35    1
    42    34    36    1
@<TRIPOS>MOLECULE
*****
 39 42 0 0 0
SMALL
GASTEIGER

@<TRIPOS>ATOM
      1 C         141.9885  141.9224  162.6396 C.3     1  UNL1        0.1325
      2 C         141.5165  140.9978  161.5568 C.ar    1  UNL1        0.1400
      3 O         142.4512  140.5937  160.4554 O.2     1  UNL1       -0.4562
      4 C         141.9792  139.6691  159.3727 C.ar    1  UNL1        0.1487
      5 C         142.9138  139.2650  158.2712 C.ar    1  UNL1        0.0490
      6 C         142.4418  138.3404  157.1886 C.ar    1  UNL1        0.0607
      7 CL        143.3765  137.9363  156.0871 Cl      1  UNL1       -0.0821
      8 C         141.0352  137.8198  157.2073 C.ar    1  UNL1        0.0117
      9 C         140.1005  138.2239  158.3087 C.ar    1  UNL1        0.0071
     10 C         140.5725  139.1485  159.3914 C.ar    1  UNL1        0.0733
     11 C         139.6379  139.5526  160.4929 C.ar    1  UNL1        0.1975
     12 O         138.2312  139.0320  160.5116 O.2     1  UNL1       -0.2867
     13 C         140.1099  140.4772  161.5755 C.ar    1  UNL1        0.0531
     14 C         139.1752  140.8813  162.6770 C.3     1  UNL1        0.0587
     15 C         138.9300  139.9542  163.8304 C.ar    1  UNL1       -0.0176
     16 C         138.1760  140.4373  165.0338 C.ar    1  UNL1       -0.0039
     17 C         137.9307  139.5102  166.1872 C.ar    1  UNL1       -0.0003
     18 C         138.4395  138.0999  166.1372 C.ar    1  UNL1       -0.0000
     19 C         139.1935  137.6169  164.9338 C.ar    1  UNL1       -0.0003
     20 C         139.4387  138.5440  163.7804 C.ar    1  UNL1       -0.0039
     21 C         141.6966  142.0441  165.2184 C.2     1  UNL1        0.2493
     22 O         140.8068  143.2414  165.0612 O.2     1  UNL1       -0.2699
     23 N         142.2875  141.3846  164.0076 N.am    1  UNL1       -0.2708
     24 C         142.8926  139.8928  170.6903 C.3     1  UNL1        0.0310
     25 C         142.5936  140.4306  169.3223 C.ar    1  UNL1       -0.0218
     26 C         143.2176  141.7173  168.8694 C.ar    1  UNL1       -0.0041
     27 C         142.9186  142.2551  167.5014 C.ar    1  UNL1        0.0042
     28 C         141.9956  141.5063  166.5864 C.ar    1  UNL1        0.0536
     29 C         141.3716  140.2195  167.0392 C.ar    1  UNL1        0.0042
     30 C         141.6706  139.6817  168.4072 C.ar    1  UNL1       -0.0041
     31 C         143.1773  140.1874  164.1647 C.3     1  UNL1        0.0955
     32 C         144.5181  140.1560  163.4929 C.3     1  UNL1        0.0383
     33 C         145.6071  141.0814  163.9485 C.3     1  UNL1        0.0669
     34 N         146.3220  141.9460  162.9528 N.3     1  UNL1       -0.3211
     35 H         146.8548  141.3577  162.3122 H       1  UNL1        0.1189
     36 H         146.9566  142.5761  163.4433 H       1  UNL1        0.1189
     37 C         142.1615  143.3848  162.3544 C.3     1  UNL1        0.0256
     38 C         141.0532  144.1582  161.7036 C.3     1  UNL1        0.0022
     39 C         143.4428  144.0739  162.7198 C.3     1  UNL1        0.0022
@<TRIPOS>BOND
     1    24    25    1
     2    25    26   ar
     3    26    27   ar
     4    27    28   ar
     5    28    21    1
     6    21    22    2
     7    21    23   am
     8    23    31    1
     9    31    32    1
    10    32    33    1
    11    33    34    1
    12    23     1    1
    13     1     2    1
    14     2     3   ar
    15     3     4   ar
    16     4     5   ar
    17     5     6   ar
    18     6     7    1
    19     6     8   ar
    20     8     9   ar
    21     9    10   ar
    22    10    11   ar
    23    11    12    2
    24    11    13   ar
    25    13    14    1
    26    14    15    1
    27    15    16   ar
    28    16    17   ar
    29    17    18   ar
    30    18    19   ar
    31    19    20   ar
    32     1    37    1
    33    37    38    1
    34    37    39    1
    35    28    29   ar
    36    29    30   ar
    37    30    25   ar
    38    13     2   ar
    39    20    15   ar
    40    10     4   ar
    41    34    35    1
    42    34    36    1
@<TRIPOS>MOLECULE
*****
 39 42 0 0 0
SMALL
GASTEIGER

@<TRIPOS>ATOM
      1 C         143.1082  140.8946  162.9700 C.3     1  UNL1        0.1325
      2 C         142.2714  140.8290  161.7267 C.ar    1  UNL1        0.1400
      3 O         142.3284  139.6151  160.8475 O.2     1  UNL1       -0.4562
      4 C         141.4916  139.5496  159.6043 C.ar    1  UNL1        0.1487
      5 C         141.5487  138.3357  158.7250 C.ar    1  UNL1        0.0490
      6 C         140.7119  138.2701  157.4818 C.ar    1  UNL1        0.0607
      7 CL        140.7689  137.0562  156.6025 Cl      1  UNL1       -0.0821
      8 C         139.8181  139.4185  157.1180 C.ar    1  UNL1        0.0117
      9 C         139.7610  140.6324  157.9972 C.ar    1  UNL1        0.0071
     10 C         140.5978  140.6979  159.2404 C.ar    1  UNL1        0.0733
     11 C         140.5408  141.9119  160.1197 C.ar    1  UNL1        0.1975
     12 O         139.6470  143.0602  159.7559 O.2     1  UNL1       -0.2867
     13 C         141.3776  141.9774  161.3629 C.ar    1  UNL1        0.0531
     14 C         141.3206  143.1913  162.2422 C.3     1  UNL1        0.0587
     15 C         140.1767  143.3741  163.1952 C.ar    1  UNL1       -0.0176
     16 C         139.1734  142.2747  163.3822 C.ar    1  UNL1       -0.0039
     17 C         138.0295  142.4575  164.3351 C.ar    1  UNL1       -0.0003
     18 C         137.8889  143.7395  165.1010 C.ar    1  UNL1       -0.0000
     19 C         138.8922  144.8388  164.9140 C.ar    1  UNL1       -0.0003
     20 C         140.0361  144.6561  163.9611 C.ar    1  UNL1       -0.0039
     21 C         142.4507  141.5017  165.4091 C.2     1  UNL1        0.2493
     22 O         142.9721  142.8930  165.2034 O.2     1  UNL1       -0.2699
     23 N         142.5187  140.5025  164.2924 N.am    1  UNL1       -0.2708
     24 C         140.0927  139.9330  170.6986 C.3     1  UNL1        0.0310
     25 C         140.6822  140.3252  169.3762 C.ar    1  UNL1       -0.0218
     26 C         142.1129  139.9981  169.0663 C.ar    1  UNL1       -0.0041
     27 C         142.7024  140.3902  167.7439 C.ar    1  UNL1        0.0042
     28 C         141.8612  141.1095  166.7315 C.ar    1  UNL1        0.0536
     29 C         140.4304  141.4367  167.0414 C.ar    1  UNL1        0.0042
     30 C         139.8409  141.0445  168.3638 C.ar    1  UNL1       -0.0041
     31 C         141.9973  139.1112  164.4980 C.3     1  UNL1        0.0955
     32 C         140.5920  138.7703  164.0994 C.3     1  UNL1        0.0383
     33 C         140.3419  137.7266  163.0516 C.3     1  UNL1        0.0669
     34 N         141.4970  137.0804  162.3458 N.3     1  UNL1       -0.3211
     35 H         141.9826  137.7769  161.7804 H       1  UNL1        0.1189
     36 H         141.1523  136.3334  161.7429 H       1  UNL1        0.1189
     37 C         144.5345  141.3524  162.8908 C.3     1  UNL1        0.0256
     38 C         145.5434  140.8361  163.8733 C.3     1  UNL1        0.0022
     39 C         144.9517  142.3263  161.8290 C.3     1  UNL1        0.0022
@<TRIPOS>BOND
     1    24    25    1
     2    25    26   ar
     3    26    27   ar
     4    27    28   ar
     5    28    21    1
     6    21    22    2
     7    21    23   am
     8    23    31    1
     9    31    32    1
    10    32    33    1
    11    33    34    1
    12    23     1    1
    13     1     2    1
    14     2     3   ar
    15     3     4   ar
    16     4     5   ar
    17     5     6   ar
    18     6     7    1
    19     6     8   ar
    20     8     9   ar
    21     9    10   ar
    22    10    11   ar
    23    11    12    2
    24    11    13   ar
    25    13    14    1
    26    14    15    1
    27    15    16   ar
    28    16    17   ar
    29    17    18   ar
    30    18    19   ar
    31    19    20   ar
    32     1    37    1
    33    37    38    1
    34    37    39    1
    35    28    29   ar
    36    29    30   ar
    37    30    25   ar
    38    13     2   ar
    39    20    15   ar
    40    10     4   ar
    41    34    35    1
    42    34    36    1
@<TRIPOS>MOLECULE
*****
 39 42 0 0 0
SMALL
GASTEIGER

@<TRIPOS>ATOM
      1 C         139.7027  142.2689  163.2131 C.3     1  UNL1        0.1325
      2 C         140.4672  142.1180  161.9313 C.ar    1  UNL1        0.1400
      3 O         140.5705  143.2726  160.9793 O.2     1  UNL1       -0.4562
      4 C         141.3350  143.1217  159.6976 C.ar    1  UNL1        0.1487
      5 C         141.4383  144.2762  158.7456 C.ar    1  UNL1        0.0490
      6 C         142.2028  144.1253  157.4639 C.ar    1  UNL1        0.0607
      7 CL        142.3061  145.2799  156.5118 Cl      1  UNL1       -0.0821
      8 C         142.8639  142.8199  157.1342 C.ar    1  UNL1        0.0117
      9 C         142.7606  141.6653  158.0861 C.ar    1  UNL1        0.0071
     10 C         141.9961  141.8162  159.3678 C.ar    1  UNL1        0.0733
     11 C         141.8928  140.6617  160.3199 C.ar    1  UNL1        0.1975
     12 O         142.5539  139.3562  159.9902 O.2     1  UNL1       -0.2867
     13 C         141.1283  140.8126  161.6016 C.ar    1  UNL1        0.0531
     14 C         141.0250  139.6580  162.5537 C.3     1  UNL1        0.0587
     15 C         142.1059  139.4220  163.5665 C.ar    1  UNL1       -0.0176
     16 C         143.4020  140.1708  163.4685 C.ar    1  UNL1       -0.0039
     17 C         144.4829  139.9349  164.4814 C.ar    1  UNL1       -0.0003
     18 C         144.2678  138.9502  165.5923 C.ar    1  UNL1       -0.0000
     19 C         142.9717  138.2014  165.6903 C.ar    1  UNL1       -0.0003
     20 C         141.8908  138.4374  164.6774 C.ar    1  UNL1       -0.0039
     21 C         140.2617  141.7509  165.6969 C.2     1  UNL1        0.2493
     22 O         139.3750  140.5422  165.6444 O.2     1  UNL1       -0.2699
     23 N         140.4256  142.6143  164.4813 N.am    1  UNL1       -0.2708
     24 C         143.1531  143.1324  170.7695 C.3     1  UNL1        0.0310
     25 C         142.4302  142.7870  169.5014 C.ar    1  UNL1       -0.0218
     26 C         141.0178  143.2475  169.2939 C.ar    1  UNL1       -0.0041
     27 C         140.2950  142.9021  168.0258 C.ar    1  UNL1        0.0042
     28 C         140.9845  142.0963  166.9651 C.ar    1  UNL1        0.0536
     29 C         142.3970  141.6358  167.1725 C.ar    1  UNL1        0.0042
     30 C         143.1199  141.9812  168.4406 C.ar    1  UNL1       -0.0041
     31 C         141.3123  143.8230  164.5338 C.3     1  UNL1        0.0955
     32 C         142.7754  143.6935  164.2299 C.3     1  UNL1        0.0383
     33 C         143.4802  144.7720  163.4616 C.3     1  UNL1        0.0669
     34 N         143.0285  145.1224  162.0748 N.3     1  UNL1       -0.3211
     35 H         143.1967  144.3319  161.4526 H       1  UNL1        0.1189
     36 H         143.5497  145.9337  161.7423 H       1  UNL1        0.1189
     37 C         138.2155  142.0744  163.2267 C.3     1  UNL1        0.0256
     38 C         137.3348  143.0732  163.9170 C.3     1  UNL1        0.0022
     39 C         137.6089  140.8810  162.5499 C.3     1  UNL1        0.0022
@<TRIPOS>BOND
     1    24    25    1
     2    25    26   ar
     3    26    27   ar
     4    27    28   ar
     5    28    21    1
     6    21    22    2
     7    21    23   am
     8    23    31    1
     9    31    32    1
    10    32    33    1
    11    33    34    1
    12    23     1    1
    13     1     2    1
    14     2     3   ar
    15     3     4   ar
    16     4     5   ar
    17     5     6   ar
    18     6     7    1
    19     6     8   ar
    20     8     9   ar
    21     9    10   ar
    22    10    11   ar
    23    11    12    2
    24    11    13   ar
    25    13    14    1
    26    14    15    1
    27    15    16   ar
    28    16    17   ar
    29    17    18   ar
    30    18    19   ar
    31    19    20   ar
    32     1    37    1
    33    37    38    1
    34    37    39    1
    35    28    29   ar
    36    29    30   ar
    37    30    25   ar
    38    13     2   ar
    39    20    15   ar
    40    10     4   ar
    41    34    35    1
    42    34    36    1
@<TRIPOS>MOLECULE
*****
 39 42 0 0 0
SMALL
GASTEIGER

@<TRIPOS>ATOM
      1 C         139.7237  141.7561  162.4676 C.3     1  UNL1        0.1325
      2 C         140.4110  142.2186  161.2170 C.ar    1  UNL1        0.1400
      3 O         139.8600  143.3798  160.4439 O.2     1  UNL1       -0.4562
      4 C         140.5473  143.8423  159.1934 C.ar    1  UNL1        0.1487
      5 C         139.9963  145.0036  158.4203 C.ar    1  UNL1        0.0490
      6 C         140.6836  145.4660  157.1699 C.ar    1  UNL1        0.0607
      7 CL        140.1326  146.6273  156.3967 Cl      1  UNL1       -0.0821
      8 C         141.9221  144.7671  156.6926 C.ar    1  UNL1        0.0117
      9 C         142.4731  143.6059  157.4656 C.ar    1  UNL1        0.0071
     10 C         141.7858  143.1435  158.7161 C.ar    1  UNL1        0.0733
     11 C         142.3368  141.9821  159.4893 C.ar    1  UNL1        0.1975
     12 O         143.5753  141.2833  159.0119 O.2     1  UNL1       -0.2867
     13 C         141.6495  141.5197  160.7397 C.ar    1  UNL1        0.0531
     14 C         142.2005  140.3584  161.5129 C.3     1  UNL1        0.0587
     15 C         143.3661  140.5572  162.4358 C.ar    1  UNL1       -0.0176
     16 C         143.8889  139.4057  163.2426 C.ar    1  UNL1       -0.0039
     17 C         145.0546  139.6045  164.1655 C.ar    1  UNL1       -0.0003
     18 C         145.6974  140.9549  164.2817 C.ar    1  UNL1       -0.0000
     19 C         145.1746  142.1063  163.4749 C.ar    1  UNL1       -0.0003
     20 C         144.0090  141.9075  162.5520 C.ar    1  UNL1       -0.0039
     21 C         140.6919  141.1558  164.8026 C.2     1  UNL1        0.2493
     22 O         140.6285  139.6982  164.4542 O.2     1  UNL1       -0.2699
     23 N         140.2395  142.1848  163.8093 N.am    1  UNL1       -0.2708
     24 C         142.7552  142.8705  170.1694 C.3     1  UNL1        0.0310
     25 C         142.2394  142.4418  168.8277 C.ar    1  UNL1       -0.0218
     26 C         143.1941  142.2258  167.6911 C.ar    1  UNL1       -0.0041
     27 C         142.6783  141.7972  166.3494 C.ar    1  UNL1        0.0042
     28 C         141.2077  141.5845  166.1443 C.ar    1  UNL1        0.0536
     29 C         140.2529  141.8005  167.2808 C.ar    1  UNL1        0.0042
     30 C         140.7687  142.2291  168.6225 C.ar    1  UNL1       -0.0041
     31 C         140.3029  143.6423  164.1577 C.3     1  UNL1        0.0955
     32 C         141.5768  144.4075  163.9536 C.3     1  UNL1        0.0383
     33 C         141.6973  145.3726  162.8117 C.3     1  UNL1        0.0669
     34 N         142.5618  145.0357  161.6331 N.3     1  UNL1       -0.3211
     35 H         143.5377  144.9966  161.9273 H       1  UNL1        0.1189
     36 H         142.4516  145.7515  160.9149 H       1  UNL1        0.1189
     37 C         138.5205  140.8650  162.3763 C.3     1  UNL1        0.0256
     38 C         138.5605  139.6367  161.5164 C.3     1  UNL1        0.0022
     39 C         137.2774  141.2022  163.1451 C.3     1  UNL1        0.0022
@<TRIPOS>BOND
     1    24    25    1
     2    25    26   ar
     3    26    27   ar
     4    27    28   ar
     5    28    21    1
     6    21    22    2
     7    21    23   am
     8    23    31    1
     9    31    32    1
    10    32    33    1
    11    33    34    1
    12    23     1    1
    13     1     2    1
    14     2     3   ar
    15     3     4   ar
    16     4     5   ar
    17     5     6   ar
    18     6     7    1
    19     6     8   ar
    20     8     9   ar
    21     9    10   ar
    22    10    11   ar
    23    11    12    2
    24    11    13   ar
    25    13    14    1
    26    14    15    1
    27    15    16   ar
    28    16    17   ar
    29    17    18   ar
    30    18    19   ar
    31    19    20   ar
    32     1    37    1
    33    37    38    1
    34    37    39    1
    35    28    29   ar
    36    29    30   ar
    37    30    25   ar
    38    13     2   ar
    39    20    15   ar
    40    10     4   ar
    41    34    35    1
    42    34    36    1
@<TRIPOS>MOLECULE
*****
 39 42 0 0 0
SMALL
GASTEIGER

@<TRIPOS>ATOM
      1 C         140.5463  139.5248  162.4541 C.3     1  UNL1        0.1325
      2 C         141.0881  139.8342  161.0900 C.ar    1  UNL1        0.1400
      3 O         141.6340  138.7316  160.2320 O.2     1  UNL1       -0.4562
      4 C         142.1758  139.0409  158.8679 C.ar    1  UNL1        0.1487
      5 C         142.7217  137.9383  158.0099 C.ar    1  UNL1        0.0490
      6 C         143.2635  138.2477  156.6459 C.ar    1  UNL1        0.0607
      7 CL        143.8093  137.1450  155.7878 Cl      1  UNL1       -0.0821
      8 C         143.2594  139.6597  156.1398 C.ar    1  UNL1        0.0117
      9 C         142.7136  140.7624  156.9978 C.ar    1  UNL1        0.0071
     10 C         142.1718  140.4530  158.3618 C.ar    1  UNL1        0.0733
     11 C         141.6259  141.5557  159.2199 C.ar    1  UNL1        0.1975
     12 O         141.6219  142.9677  158.7139 O.2     1  UNL1       -0.2867
     13 C         141.0841  141.2463  160.5840 C.ar    1  UNL1        0.0531
     14 C         140.5382  142.3489  161.4420 C.3     1  UNL1        0.0587
     15 C         141.4753  143.2735  162.1611 C.ar    1  UNL1       -0.0176
     16 C         142.9570  143.1364  161.9711 C.ar    1  UNL1       -0.0039
     17 C         143.8940  144.0610  162.6901 C.ar    1  UNL1       -0.0003
     18 C         143.3495  145.1227  163.5992 C.ar    1  UNL1       -0.0000
     19 C         141.8679  145.2598  163.7891 C.ar    1  UNL1       -0.0003
     20 C         140.9308  144.3352  163.0701 C.ar    1  UNL1       -0.0039
     21 C         140.7410  140.8017  164.7085 C.2     1  UNL1        0.2493
     22 O         139.3561  141.3460  164.5198 O.2     1  UNL1       -0.2699
     23 N         141.3361  139.8911  163.6756 N.am    1  UNL1       -0.2708
     24 C         143.9003  142.2666  169.5944 C.3     1  UNL1        0.0310
     25 C         143.1105  141.9004  168.3729 C.ar    1  UNL1       -0.0218
     26 C         143.3137  142.6568  167.0937 C.ar    1  UNL1       -0.0041
     27 C         142.5239  142.2906  165.8722 C.ar    1  UNL1        0.0042
     28 C         141.5308  141.1679  165.9299 C.ar    1  UNL1        0.0536
     29 C         141.3276  140.4114  167.2092 C.ar    1  UNL1        0.0042
     30 C         142.1174  140.7776  168.4307 C.ar    1  UNL1       -0.0041
     31 C         142.7210  139.3467  163.8643 C.3     1  UNL1        0.0955
     32 C         143.8920  140.0408  163.2343 C.3     1  UNL1        0.0383
     33 C         145.0983  140.3764  164.0603 C.3     1  UNL1        0.0669
     34 N         146.0559  141.4328  163.5946 N.3     1  UNL1       -0.3211
     35 H         146.5161  141.1214  162.7392 H       1  UNL1        0.1189
     36 H         146.7569  141.5985  164.3168 H       1  UNL1        0.1189
     37 C         139.2147  138.8493  162.5967 C.3     1  UNL1        0.0256
     38 C         139.0596  137.6874  163.5327 C.3     1  UNL1        0.0022
     39 C         138.0382  139.3355  161.8034 C.3     1  UNL1        0.0022
@<TRIPOS>BOND
     1    24    25    1
     2    25    26   ar
     3    26    27   ar
     4    27    28   ar
     5    28    21    1
     6    21    22    2
     7    21    23   am
     8    23    31    1
     9    31    32    1
    10    32    33    1
    11    33    34    1
    12    23     1    1
    13     1     2    1
    14     2     3   ar
    15     3     4   ar
    16     4     5   ar
    17     5     6   ar
    18     6     7    1
    19     6     8   ar
    20     8     9   ar
    21     9    10   ar
    22    10    11   ar
    23    11    12    2
    24    11    13   ar
    25    13    14    1
    26    14    15    1
    27    15    16   ar
    28    16    17   ar
    29    17    18   ar
    30    18    19   ar
    31    19    20   ar
    32     1    37    1
    33    37    38    1
    34    37    39    1
    35    28    29   ar
    36    29    30   ar
    37    30    25   ar
    38    13     2   ar
    39    20    15   ar
    40    10     4   ar
    41    34    35    1
    42    34    36    1
