@<TRIPOS>MOLECULE
*****
 28 30 0 0 0
SMALL
GASTEIGER

@<TRIPOS>ATOM
      1 N         141.8973  144.2815  164.2387 N.am    1  UNL1       -0.2606
      2 C         140.5371  144.7010  163.7654 C.3     1  UNL1        0.1169
      3 C         139.5428  143.6925  164.2597 C.3     1  UNL1        0.1212
      4 N         140.2885  142.6497  165.0385 N.am    1  UNL1       -0.2413
      5 C         141.7437  143.0137  165.0256 C.2     1  UNL1        0.3111
      6 O         142.8507  142.2449  165.6838 O.2     1  UNL1       -0.2520
      7 C         139.6851  141.4529  165.7120 C.ar    1  UNL1        0.0584
      8 C         138.8047  140.5195  164.9351 C.ar    1  UNL1        0.0152
      9 C         138.2013  139.3227  165.6086 C.ar    1  UNL1        0.0044
     10 C         138.4783  139.0594  167.0591 C.ar    1  UNL1        0.0373
     11 C         139.3587  139.9928  167.8360 C.ar    1  UNL1        0.1480
     12 C         139.9621  141.1896  167.1625 C.ar    1  UNL1        0.0521
     13 O         139.6356  139.7295  169.2866 O.3     1  UNL1       -0.4044
     14 C         140.1451  140.8332  170.1653 C.3     1  UNL1        0.5753
     15 F         140.6545  141.9369  171.0440 F       1  UNL1       -0.1328
     16 F         138.7619  141.4083  170.2448 F       1  UNL1       -0.1328
     17 F         141.5282  140.2580  170.0858 F       1  UNL1       -0.1328
     18 C         143.1849  145.0032  163.9720 C.3     1  UNL1        0.1123
     19 C         144.0549  144.5854  162.8237 C.3     1  UNL1        0.0940
     20 N         143.6725  140.4460  161.1008 N.3     1  UNL1       -0.2716
     21 C         144.6498  140.7103  162.2075 C.3     1  UNL1        0.0896
     22 C         144.7772  142.0902  162.7819 C.3     1  UNL1        0.0897
     23 N         143.9274  143.2056  162.2494 N.3     1  UNL1       -0.2688
     24 C         142.9501  142.9412  161.1427 C.3     1  UNL1        0.0897
     25 C         142.8227  141.5614  160.5683 C.3     1  UNL1        0.0896
     26 C         143.0146  138.8786  159.1360 C.3     1  UNL1        0.0173
     27 C         143.5450  139.0661  160.5265 C.3     1  UNL1        0.0577
     28 C         143.9480  137.8739  161.3426 C.3     1  UNL1        0.0173
@<TRIPOS>BOND
     1    26    27    1
     2    27    28    1
     3    27    20    1
     4    20    21    1
     5    21    22    1
     6    22    23    1
     7    23    19    1
     8    19    18    1
     9    18     1    1
    10     1     2    1
    11     2     3    1
    12     3     4    1
    13     4     7    1
    14     7     8   ar
    15     8     9   ar
    16     9    10   ar
    17    10    11   ar
    18    11    13    1
    19    13    14    1
    20    14    15    1
    21    14    16    1
    22    14    17    1
    23    11    12   ar
    24     4     5   am
    25     5     6    2
    26    23    24    1
    27    24    25    1
    28    25    20    1
    29     5     1   am
    30    12     7   ar
@<TRIPOS>MOLECULE
*****
 28 30 0 0 0
SMALL
GASTEIGER

@<TRIPOS>ATOM
      1 N         140.9192  138.1206  163.8932 N.am    1  UNL1       -0.2606
      2 C         142.4051  138.3057  163.8051 C.3     1  UNL1        0.1169
      3 C         142.8825  138.8546  165.1169 C.3     1  UNL1        0.1212
      4 N         141.6916  139.0089  166.0158 N.am    1  UNL1       -0.2413
      5 C         140.4782  138.5552  165.2595 C.2     1  UNL1        0.3111
      6 O         139.0710  138.5391  165.7784 O.2     1  UNL1       -0.2520
      7 C         141.7107  139.5259  167.4237 C.ar    1  UNL1        0.0584
      8 C         142.7416  139.0265  168.3922 C.ar    1  UNL1        0.0152
      9 C         142.7607  139.5436  169.8001 C.ar    1  UNL1        0.0044
     10 C         141.7490  140.5601  170.2395 C.ar    1  UNL1        0.0373
     11 C         140.7181  141.0595  169.2710 C.ar    1  UNL1        0.1480
     12 C         140.6990  140.5424  167.8631 C.ar    1  UNL1        0.0521
     13 O         139.7064  142.0761  169.7105 O.3     1  UNL1       -0.4044
     14 C         140.1284  143.4928  169.9652 C.3     1  UNL1        0.5753
     15 F         140.5505  144.9094  170.2198 F       1  UNL1       -0.1328
     16 F         141.0353  143.4371  168.7716 F       1  UNL1       -0.1328
     17 F         139.2215  143.5484  171.1587 F       1  UNL1       -0.1328
     18 C         140.0303  137.5935  162.8060 C.3     1  UNL1        0.1123
     19 C         139.2253  138.5430  161.9691 C.3     1  UNL1        0.0940
     20 N         138.8813  142.8658  163.1714 N.3     1  UNL1       -0.2716
     21 C         140.0702  142.3982  162.3853 C.3     1  UNL1        0.0896
     22 C         140.1849  140.9573  161.9845 C.3     1  UNL1        0.0897
     23 N         139.1107  139.9839  162.3698 N.3     1  UNL1       -0.2688
     24 C         137.9218  140.4514  163.1559 C.3     1  UNL1        0.0897
     25 C         137.8071  141.8924  163.5567 C.3     1  UNL1        0.0896
     26 C         138.3267  144.6663  164.9603 C.3     1  UNL1        0.0173
     27 C         138.7667  144.3067  163.5721 C.3     1  UNL1        0.0577
     28 C         139.0920  145.3879  162.5847 C.3     1  UNL1        0.0173
@<TRIPOS>BOND
     1    26    27    1
     2    27    28    1
     3    27    20    1
     4    20    21    1
     5    21    22    1
     6    22    23    1
     7    23    19    1
     8    19    18    1
     9    18     1    1
    10     1     2    1
    11     2     3    1
    12     3     4    1
    13     4     7    1
    14     7     8   ar
    15     8     9   ar
    16     9    10   ar
    17    10    11   ar
    18    11    13    1
    19    13    14    1
    20    14    15    1
    21    14    16    1
    22    14    17    1
    23    11    12   ar
    24     4     5   am
    25     5     6    2
    26    23    24    1
    27    24    25    1
    28    25    20    1
    29     5     1   am
    30    12     7   ar
@<TRIPOS>MOLECULE
*****
 28 30 0 0 0
SMALL
GASTEIGER

@<TRIPOS>ATOM
      1 N         138.0441  139.3816  161.8378 N.am    1  UNL1       -0.2606
      2 C         138.6669  138.0304  162.0282 C.3     1  UNL1        0.1169
      3 C         139.0029  137.8754  163.4818 C.3     1  UNL1        0.1212
      4 N         138.5877  139.1308  164.1899 N.am    1  UNL1       -0.2413
      5 C         137.9951  140.0618  163.1739 C.2     1  UNL1        0.3111
      6 O         137.4493  141.4321  163.4462 O.2     1  UNL1       -0.2520
      7 C         138.7386  139.4070  165.6565 C.ar    1  UNL1        0.0584
      8 C         137.8296  138.7363  166.6434 C.ar    1  UNL1        0.0152
      9 C         137.9805  139.0124  168.1101 C.ar    1  UNL1        0.0044
     10 C         139.0404  139.9592  168.5898 C.ar    1  UNL1        0.0373
     11 C         139.9494  140.6299  167.6029 C.ar    1  UNL1        0.1480
     12 C         139.7985  140.3538  166.1363 C.ar    1  UNL1        0.0521
     13 O         141.0093  141.5768  168.0827 O.3     1  UNL1       -0.4044
     14 C         140.6200  142.8678  168.7398 C.3     1  UNL1        0.5753
     15 F         140.2307  144.1587  169.3968 F       1  UNL1       -0.1328
     16 F         140.1815  143.4112  167.4122 F       1  UNL1       -0.1328
     17 F         141.0585  142.3243  170.0673 F       1  UNL1       -0.1328
     18 C         137.5559  139.9525  160.5395 C.3     1  UNL1        0.1123
     19 C         138.4165  140.9106  159.7707 C.3     1  UNL1        0.0940
     20 N         141.5043  143.3819  161.9174 N.3     1  UNL1       -0.2716
     21 C         141.8334  141.9856  161.4793 C.3     1  UNL1        0.0896
     22 C         140.8041  141.1619  160.7637 C.3     1  UNL1        0.0897
     23 N         139.4458  141.7344  160.4862 N.3     1  UNL1       -0.2688
     24 C         139.1167  143.1307  160.9244 C.3     1  UNL1        0.0897
     25 C         140.1459  143.9544  161.6400 C.3     1  UNL1        0.0896
     26 C         142.1036  145.2662  163.6027 C.3     1  UNL1        0.0173
     27 C         142.5335  144.2057  162.6330 C.3     1  UNL1        0.0577
     28 C         143.9927  143.9690  162.3788 C.3     1  UNL1        0.0173
@<TRIPOS>BOND
     1    26    27    1
     2    27    28    1
     3    27    20    1
     4    20    21    1
     5    21    22    1
     6    22    23    1
     7    23    19    1
     8    19    18    1
     9    18     1    1
    10     1     2    1
    11     2     3    1
    12     3     4    1
    13     4     7    1
    14     7     8   ar
    15     8     9   ar
    16     9    10   ar
    17    10    11   ar
    18    11    13    1
    19    13    14    1
    20    14    15    1
    21    14    16    1
    22    14    17    1
    23    11    12   ar
    24     4     5   am
    25     5     6    2
    26    23    24    1
    27    24    25    1
    28    25    20    1
    29     5     1   am
    30    12     7   ar
@<TRIPOS>MOLECULE
*****
 28 30 0 0 0
SMALL
GASTEIGER

@<TRIPOS>ATOM
      1 N         144.2670  140.3254  164.1055 N.am    1  UNL1       -0.2606
      2 C         143.9979  139.0517  163.3604 C.3     1  UNL1        0.1169
      3 C         142.6621  138.5305  163.8006 C.3     1  UNL1        0.1212
      4 N         142.1055  139.4820  164.8178 N.am    1  UNL1       -0.2413
      5 C         143.0974  140.5914  165.0064 C.2     1  UNL1        0.3111
      6 O         142.9463  141.7612  165.9329 O.2     1  UNL1       -0.2520
      7 C         140.7884  139.3478  165.5229 C.ar    1  UNL1        0.0584
      8 C         139.5838  138.8580  164.7750 C.ar    1  UNL1        0.0152
      9 C         138.2667  138.7239  165.4800 C.ar    1  UNL1        0.0044
     10 C         138.1540  139.0795  166.9329 C.ar    1  UNL1        0.0373
     11 C         139.3586  139.5693  167.6807 C.ar    1  UNL1        0.1480
     12 C         140.6757  139.7035  166.9757 C.ar    1  UNL1        0.0521
     13 O         139.2459  139.9249  169.1337 O.3     1  UNL1       -0.4044
     14 C         140.3776  140.6270  169.8239 C.3     1  UNL1        0.5753
     15 F         141.5092  141.3289  170.5142 F       1  UNL1       -0.1328
     16 F         140.9389  139.3028  170.2503 F       1  UNL1       -0.1328
     17 F         139.8162  141.9510  169.3976 F       1  UNL1       -0.1328
     18 C         145.4908  141.1826  163.9732 C.3     1  UNL1        0.1123
     19 C         145.6308  142.1150  162.8066 C.3     1  UNL1        0.0940
     20 N         142.0823  144.4896  161.3856 N.3     1  UNL1       -0.2716
     21 C         142.6566  144.7419  162.7481 C.3     1  UNL1        0.0896
     22 C         143.8394  143.9503  163.2218 C.3     1  UNL1        0.0897
     23 N         144.4480  142.9065  162.3329 N.3     1  UNL1       -0.2688
     24 C         143.8737  142.6543  160.9704 C.3     1  UNL1        0.0897
     25 C         142.6908  143.4458  160.4967 C.3     1  UNL1        0.0896
     26 C         140.5421  145.2967  159.4552 C.3     1  UNL1        0.0173
     27 C         140.8994  145.2811  160.9119 C.3     1  UNL1        0.0577
     28 C         140.0739  146.0570  161.8949 C.3     1  UNL1        0.0173
@<TRIPOS>BOND
     1    26    27    1
     2    27    28    1
     3    27    20    1
     4    20    21    1
     5    21    22    1
     6    22    23    1
     7    23    19    1
     8    19    18    1
     9    18     1    1
    10     1     2    1
    11     2     3    1
    12     3     4    1
    13     4     7    1
    14     7     8   ar
    15     8     9   ar
    16     9    10   ar
    17    10    11   ar
    18    11    13    1
    19    13    14    1
    20    14    15    1
    21    14    16    1
    22    14    17    1
    23    11    12   ar
    24     4     5   am
    25     5     6    2
    26    23    24    1
    27    24    25    1
    28    25    20    1
    29     5     1   am
    30    12     7   ar
@<TRIPOS>MOLECULE
*****
 28 30 0 0 0
SMALL
GASTEIGER

@<TRIPOS>ATOM
      1 N         139.5980  138.3364  161.7190 N.am    1  UNL1       -0.2606
      2 C         138.4833  137.8391  162.5908 C.3     1  UNL1        0.1169
      3 C         138.9265  137.9520  164.0194 C.3     1  UNL1        0.1212
      4 N         140.3151  138.5192  164.0305 N.am    1  UNL1       -0.2413
      5 C         140.7302  138.7568  162.6088 C.2     1  UNL1        0.3111
      6 O         142.0462  139.3163  162.1563 O.2     1  UNL1       -0.2520
      7 C         141.1433  138.7995  165.2493 C.ar    1  UNL1        0.0584
      8 C         142.5208  138.2183  165.3700 C.ar    1  UNL1        0.0152
      9 C         143.3490  138.4986  166.5888 C.ar    1  UNL1        0.0044
     10 C         142.7996  139.3602  167.6870 C.ar    1  UNL1        0.0373
     11 C         141.4221  139.9414  167.5663 C.ar    1  UNL1        0.1480
     12 C         140.5939  139.6610  166.3475 C.ar    1  UNL1        0.0521
     13 O         140.8727  140.8030  168.6645 O.3     1  UNL1       -0.4044
     14 C         140.3028  140.1710  169.8997 C.3     1  UNL1        0.5753
     15 F         139.7329  139.5389  171.1348 F       1  UNL1       -0.1328
     16 F         138.9761  140.0280  169.2144 F       1  UNL1       -0.1328
     17 F         141.6295  140.3139  170.5849 F       1  UNL1       -0.1328
     18 C         139.5833  138.4020  160.2205 C.3     1  UNL1        0.1123
     19 C         139.2629  139.6941  159.5294 C.3     1  UNL1        0.0940
     20 N         139.3551  143.5599  161.8310 N.3     1  UNL1       -0.2716
     21 C         138.1236  142.7038  161.8519 C.3     1  UNL1        0.0896
     22 C         138.0929  141.4152  161.0847 C.3     1  UNL1        0.0897
     23 N         139.2936  140.9827  160.2966 N.3     1  UNL1       -0.2688
     24 C         140.5251  141.8388  160.2757 C.3     1  UNL1        0.0897
     25 C         140.5558  143.1274  161.0429 C.3     1  UNL1        0.0896
     26 C         139.7476  146.1271  161.9024 C.3     1  UNL1        0.0173
     27 C         139.3858  144.8485  162.5982 C.3     1  UNL1        0.0577
     28 C         139.0548  144.8584  164.0611 C.3     1  UNL1        0.0173
@<TRIPOS>BOND
     1    26    27    1
     2    27    28    1
     3    27    20    1
     4    20    21    1
     5    21    22    1
     6    22    23    1
     7    23    19    1
     8    19    18    1
     9    18     1    1
    10     1     2    1
    11     2     3    1
    12     3     4    1
    13     4     7    1
    14     7     8   ar
    15     8     9   ar
    16     9    10   ar
    17    10    11   ar
    18    11    13    1
    19    13    14    1
    20    14    15    1
    21    14    16    1
    22    14    17    1
    23    11    12   ar
    24     4     5   am
    25     5     6    2
    26    23    24    1
    27    24    25    1
    28    25    20    1
    29     5     1   am
    30    12     7   ar
@<TRIPOS>MOLECULE
*****
 28 30 0 0 0
SMALL
GASTEIGER

@<TRIPOS>ATOM
      1 N         139.0899  138.8465  162.6798 N.am    1  UNL1       -0.2606
      2 C         138.9816  138.7328  164.1716 C.3     1  UNL1        0.1169
      3 C         140.2946  139.1500  164.7648 C.3     1  UNL1        0.1212
      4 N         141.2145  139.5215  163.6397 N.am    1  UNL1       -0.2413
      5 C         140.4699  139.3339  162.3510 C.2     1  UNL1        0.3111
      6 O         141.0104  139.5890  160.9753 O.2     1  UNL1       -0.2520
      7 C         142.6302  139.9971  163.7787 C.ar    1  UNL1        0.0584
      8 C         143.6944  139.0547  164.2579 C.ar    1  UNL1        0.0152
      9 C         145.1102  139.5303  164.3969 C.ar    1  UNL1        0.0044
     10 C         145.4618  140.9483  164.0568 C.ar    1  UNL1        0.0373
     11 C         144.3977  141.8906  163.5776 C.ar    1  UNL1        0.1480
     12 C         142.9819  141.4150  163.4386 C.ar    1  UNL1        0.0521
     13 O         144.7494  143.3087  163.2375 O.3     1  UNL1       -0.4044
     14 C         143.8795  144.4328  163.7166 C.3     1  UNL1        0.5753
     15 F         143.0096  145.5568  164.1959 F       1  UNL1       -0.1328
     16 F         144.4417  144.2786  165.0988 F       1  UNL1       -0.1328
     17 F         143.3173  144.5869  162.3345 F       1  UNL1       -0.1328
     18 C         138.0082  138.5285  161.6905 C.3     1  UNL1        0.1123
     19 C         137.3236  139.6361  160.9459 C.3     1  UNL1        0.0940
     20 N         139.2803  143.6756  160.6230 N.3     1  UNL1       -0.2716
     21 C         138.5650  143.2873  161.8830 C.3     1  UNL1        0.0896
     22 C         137.9127  141.9408  161.9906 C.3     1  UNL1        0.0897
     23 N         137.9758  140.9826  160.8383 N.3     1  UNL1       -0.2688
     24 C         138.6911  141.3709  159.5784 C.3     1  UNL1        0.0897
     25 C         139.3434  142.7174  159.4707 C.3     1  UNL1        0.0896
     26 C         140.6292  145.4187  159.2476 C.3     1  UNL1        0.0173
     27 C         139.9326  145.0220  160.5154 C.3     1  UNL1        0.0577
     28 C         139.8882  145.9718  161.6755 C.3     1  UNL1        0.0173
@<TRIPOS>BOND
     1    26    27    1
     2    27    28    1
     3    27    20    1
     4    20    21    1
     5    21    22    1
     6    22    23    1
     7    23    19    1
     8    19    18    1
     9    18     1    1
    10     1     2    1
    11     2     3    1
    12     3     4    1
    13     4     7    1
    14     7     8   ar
    15     8     9   ar
    16     9    10   ar
    17    10    11   ar
    18    11    13    1
    19    13    14    1
    20    14    15    1
    21    14    16    1
    22    14    17    1
    23    11    12   ar
    24     4     5   am
    25     5     6    2
    26    23    24    1
    27    24    25    1
    28    25    20    1
    29     5     1   am
    30    12     7   ar
@<TRIPOS>MOLECULE
*****
 28 30 0 0 0
SMALL
GASTEIGER

@<TRIPOS>ATOM
      1 N         144.5570  141.8281  163.0105 N.am    1  UNL1       -0.2606
      2 C         144.7628  142.1732  161.5653 C.3     1  UNL1        0.1169
      3 C         143.5799  142.9735  161.1068 C.3     1  UNL1        0.1212
      4 N         142.6429  143.1229  162.2686 N.am    1  UNL1       -0.2413
      5 C         143.2468  142.4150  163.4452 C.2     1  UNL1        0.3111
      6 O         142.6461  142.3122  164.8157 O.2     1  UNL1       -0.2520
      7 C         141.3322  143.8522  162.2561 C.ar    1  UNL1        0.0584
      8 C         141.3055  145.3442  162.1037 C.ar    1  UNL1        0.0152
      9 C         139.9948  146.0735  162.0912 C.ar    1  UNL1        0.0044
     10 C         138.7108  145.3108  162.2311 C.ar    1  UNL1        0.0373
     11 C         138.7375  143.8188  162.3836 C.ar    1  UNL1        0.1480
     12 C         140.0483  143.0895  162.3960 C.ar    1  UNL1        0.0521
     13 O         137.4535  143.0560  162.5235 O.3     1  UNL1       -0.4044
     14 C         137.4279  141.7636  163.2844 C.3     1  UNL1        0.5753
     15 F         137.4024  140.4713  164.0454 F       1  UNL1       -0.1328
     16 F         137.4119  142.5249  164.5768 F       1  UNL1       -0.1328
     17 F         137.4440  141.0024  161.9920 F       1  UNL1       -0.1328
     18 C         145.4964  141.0352  163.8700 C.3     1  UNL1        0.1123
     19 C         145.1457  139.6321  164.2679 C.3     1  UNL1        0.0940
     20 N         140.8586  138.2684  164.1626 N.3     1  UNL1       -0.2716
     21 C         141.5195  138.5644  165.4762 C.3     1  UNL1        0.0896
     22 C         142.9485  139.0190  165.5113 C.3     1  UNL1        0.0897
     23 N         143.7167  139.1775  164.2328 N.3     1  UNL1       -0.2688
     24 C         143.0559  138.8816  162.9192 C.3     1  UNL1        0.0897
     25 C         141.6268  138.4270  162.8841 C.3     1  UNL1        0.0896
     26 C         138.7210  137.6682  162.8136 C.3     1  UNL1        0.0173
     27 C         139.4296  137.8138  164.1275 C.3     1  UNL1        0.0577
     28 C         138.7092  137.5049  165.4064 C.3     1  UNL1        0.0173
@<TRIPOS>BOND
     1    26    27    1
     2    27    28    1
     3    27    20    1
     4    20    21    1
     5    21    22    1
     6    22    23    1
     7    23    19    1
     8    19    18    1
     9    18     1    1
    10     1     2    1
    11     2     3    1
    12     3     4    1
    13     4     7    1
    14     7     8   ar
    15     8     9   ar
    16     9    10   ar
    17    10    11   ar
    18    11    13    1
    19    13    14    1
    20    14    15    1
    21    14    16    1
    22    14    17    1
    23    11    12   ar
    24     4     5   am
    25     5     6    2
    26    23    24    1
    27    24    25    1
    28    25    20    1
    29     5     1   am
    30    12     7   ar
@<TRIPOS>MOLECULE
*****
 28 30 0 0 0
SMALL
GASTEIGER

@<TRIPOS>ATOM
      1 N         141.6653  138.1431  162.0477 N.am    1  UNL1       -0.2606
      2 C         140.3369  138.5044  161.4521 C.3     1  UNL1        0.1169
      3 C         139.4083  138.8640  162.5738 C.3     1  UNL1        0.1212
      4 N         140.1628  138.7250  163.8628 N.am    1  UNL1       -0.2413
      5 C         141.5578  138.2795  163.5377 C.2     1  UNL1        0.3111
      6 O         142.6528  138.0166  164.5284 O.2     1  UNL1       -0.2520
      7 C         139.6181  138.9857  165.2358 C.ar    1  UNL1        0.0584
      8 C         138.3534  138.3131  165.6812 C.ar    1  UNL1        0.0152
      9 C         137.8087  138.5739  167.0543 C.ar    1  UNL1        0.0044
     10 C         138.5286  139.5072  167.9819 C.ar    1  UNL1        0.0373
     11 C         139.7932  140.1798  167.5366 C.ar    1  UNL1        0.1480
     12 C         140.3380  139.9191  166.1635 C.ar    1  UNL1        0.0521
     13 O         140.5132  141.1132  168.4643 O.3     1  UNL1       -0.4044
     14 C         141.8694  140.7486  168.9913 C.3     1  UNL1        0.5753
     15 F         143.2256  140.3841  169.5182 F       1  UNL1       -0.1328
     16 F         141.2527  139.6711  169.8331 F       1  UNL1       -0.1328
     17 F         142.4861  141.8261  168.1495 F       1  UNL1       -0.1328
     18 C         142.8869  137.7199  161.2870 C.3     1  UNL1        0.1123
     19 C         144.0662  138.6416  161.1891 C.3     1  UNL1        0.0940
     20 N         144.0797  142.5273  163.4587 N.3     1  UNL1       -0.2716
     21 C         143.3300  142.4174  162.1641 C.3     1  UNL1        0.0896
     22 C         143.3255  141.1222  161.4076 C.3     1  UNL1        0.0897
     23 N         144.0707  139.9368  161.9456 N.3     1  UNL1       -0.2688
     24 C         144.8204  140.0466  163.2402 C.3     1  UNL1        0.0897
     25 C         144.8249  141.3419  163.9967 C.3     1  UNL1        0.0896
     26 C         143.5098  145.0587  163.5893 C.3     1  UNL1        0.0173
     27 C         144.0842  143.8225  164.2152 C.3     1  UNL1        0.0577
     28 C         144.6631  143.8816  165.5977 C.3     1  UNL1        0.0173
@<TRIPOS>BOND
     1    26    27    1
     2    27    28    1
     3    27    20    1
     4    20    21    1
     5    21    22    1
     6    22    23    1
     7    23    19    1
     8    19    18    1
     9    18     1    1
    10     1     2    1
    11     2     3    1
    12     3     4    1
    13     4     7    1
    14     7     8   ar
    15     8     9   ar
    16     9    10   ar
    17    10    11   ar
    18    11    13    1
    19    13    14    1
    20    14    15    1
    21    14    16    1
    22    14    17    1
    23    11    12   ar
    24     4     5   am
    25     5     6    2
    26    23    24    1
    27    24    25    1
    28    25    20    1
    29     5     1   am
    30    12     7   ar
@<TRIPOS>MOLECULE
*****
 28 30 0 0 0
SMALL
GASTEIGER

@<TRIPOS>ATOM
      1 N         142.4352  143.4152  158.9802 N.am    1  UNL1       -0.2606
      2 C         142.6122  142.0879  158.3044 C.3     1  UNL1        0.1169
      3 C         143.2246  141.1417  159.2942 C.3     1  UNL1        0.1212
      4 N         143.4261  141.8843  160.5818 N.am    1  UNL1       -0.2413
      5 C         142.9383  143.2895  160.3878 C.2     1  UNL1        0.3111
      6 O         142.9512  144.3776  161.4200 O.2     1  UNL1       -0.2520
      7 C         144.0125  141.3207  161.8421 C.ar    1  UNL1        0.0584
      8 C         145.2417  141.9392  162.4394 C.ar    1  UNL1        0.0152
      9 C         145.8281  141.3757  163.6998 C.ar    1  UNL1        0.0044
     10 C         145.1853  140.1937  164.3629 C.ar    1  UNL1        0.0373
     11 C         143.9562  139.5752  163.7656 C.ar    1  UNL1        0.1480
     12 C         143.3698  140.1387  162.5052 C.ar    1  UNL1        0.0521
     13 O         143.3134  138.3931  164.4288 O.3     1  UNL1       -0.4044
     14 C         141.8183  138.2844  164.4824 C.3     1  UNL1        0.5753
     15 F         140.3233  138.1756  164.5359 F       1  UNL1       -0.1328
     16 F         141.8503  137.2920  163.3579 F       1  UNL1       -0.1328
     17 F         141.7865  139.2767  165.6068 F       1  UNL1       -0.1328
     18 C         141.8568  144.6514  158.3578 C.3     1  UNL1        0.1123
     19 C         140.4802  145.1093  158.7390 C.3     1  UNL1        0.0940
     20 N         138.8595  144.1963  162.8366 N.3     1  UNL1       -0.2716
     21 C         138.7873  143.1609  161.7537 C.3     1  UNL1        0.0896
     22 C         139.3275  143.4653  160.3878 C.3     1  UNL1        0.0897
     23 N         139.9400  144.8049  160.1049 N.3     1  UNL1       -0.2688
     24 C         140.0122  145.8403  161.1878 C.3     1  UNL1        0.0897
     25 C         139.4720  145.5360  162.5537 C.3     1  UNL1        0.0896
     26 C         137.5780  142.6112  164.4475 C.3     1  UNL1        0.0173
     27 C         138.3193  143.8920  164.2024 C.3     1  UNL1        0.0577
     28 C         138.5203  144.8684  165.3232 C.3     1  UNL1        0.0173
@<TRIPOS>BOND
     1    26    27    1
     2    27    28    1
     3    27    20    1
     4    20    21    1
     5    21    22    1
     6    22    23    1
     7    23    19    1
     8    19    18    1
     9    18     1    1
    10     1     2    1
    11     2     3    1
    12     3     4    1
    13     4     7    1
    14     7     8   ar
    15     8     9   ar
    16     9    10   ar
    17    10    11   ar
    18    11    13    1
    19    13    14    1
    20    14    15    1
    21    14    16    1
    22    14    17    1
    23    11    12   ar
    24     4     5   am
    25     5     6    2
    26    23    24    1
    27    24    25    1
    28    25    20    1
    29     5     1   am
    30    12     7   ar
