@<TRIPOS>MOLECULE
*****
 35 38 0 0 0
SMALL
GASTEIGER

@<TRIPOS>ATOM
      1 N         141.7508  141.4264  158.9226 N.3     1  UNL1       -0.2673
      2 C         143.2294  141.4363  159.1745 C.3     1  UNL1        0.1035
      3 C         143.8039  142.3306  160.2328 C.3     1  UNL1        0.1470
      4 C         144.3785  143.2249  161.2912 C.3     1  UNL1        0.1036
      5 N         143.4744  144.1094  162.0976 N.3     1  UNL1       -0.2653
      6 C         141.9957  144.0995  161.8456 C.3     1  UNL1        0.1036
      7 C         141.4212  143.2052  160.7873 C.3     1  UNL1        0.1470
      8 C         140.8467  142.3109  159.7290 C.3     1  UNL1        0.1035
      9 O         142.8998  143.2150  161.0392 O.3     1  UNL1       -0.3530
     10 C         141.1762  140.5321  157.8642 C.3     1  UNL1        0.0916
     11 C         140.7201  139.1478  158.2186 C.3     1  UNL1        0.1131
     12 C         142.6433  137.6516  159.1201 C.3     1  UNL1        0.1149
     13 N         141.3706  138.4108  159.3517 N.3     1  UNL1       -0.1526
     14 S         140.7483  138.4332  160.7163 S.O2    1  UNL1        0.0634
     15 O         139.4052  138.1566  160.1084 O.2     1  UNL1       -0.1528
     16 O         142.0914  138.7098  161.3243 O.2     1  UNL1       -0.1528
     17 C         140.1260  138.4555  162.0810 C.ar    1  UNL1        0.1222
     18 C         140.5248  137.4336  163.1039 C.ar    1  UNL1        0.0206
     19 C         139.9025  137.4559  164.4686 C.ar    1  UNL1        0.0116
     20 C         138.8814  138.5002  164.8103 C.ar    1  UNL1        0.0685
     21 C         138.4826  139.5223  163.7873 C.ar    1  UNL1        0.0116
     22 C         139.1049  139.4999  162.4226 C.ar    1  UNL1        0.0206
     23 C         138.2592  138.5226  166.1749 C.1     1  UNL1        0.1004
     24 N         137.6369  138.5449  167.5396 N.1     1  UNL1       -0.1908
     25 C         144.0490  145.0037  163.1559 C.3     1  UNL1        0.1202
     26 C         143.8814  144.6543  164.6051 C.3     1  UNL1        0.2229
     27 O         144.6725  143.5281  165.2014 O.3     1  UNL1       -0.4694
     28 C         144.2083  142.1122  165.0295 C.ar    1  UNL1        0.1930
     29 C         145.0009  141.1605  164.1833 C.ar    1  UNL1        0.1761
     30 F         146.2577  141.6247  163.5089 F       1  UNL1       -0.2009
     31 C         144.5365  139.7445  164.0114 C.ar    1  UNL1        0.0329
     32 C         143.2797  139.2803  164.6857 C.ar    1  UNL1        0.0048
     33 C         142.4871  140.2319  165.5319 C.ar    1  UNL1        0.0329
     34 C         142.9513  141.6479  165.7038 C.ar    1  UNL1        0.1761
     35 F         142.1588  142.5995  166.5501 F       1  UNL1       -0.2009
@<TRIPOS>BOND
     1    12    13    1
     2    13    11    1
     3    11    10    1
     4    10     1    1
     5     1     2    1
     6     2     3    1
     7     3     4    1
     8     4     5    1
     9     5    25    1
    10    25    26    1
    11    26    27    1
    12    27    28    1
    13    28    29   ar
    14    29    30    1
    15    29    31   ar
    16    31    32   ar
    17    32    33   ar
    18    33    34   ar
    19    34    35    1
    20     5     6    1
    21     6     7    1
    22     7     8    1
    23     7     9    1
    24    13    14    1
    25    14    15    2
    26    14    16    2
    27    14    17    1
    28    17    18   ar
    29    18    19   ar
    30    19    20   ar
    31    20    23    1
    32    23    24    3
    33    20    21   ar
    34    21    22   ar
    35     8     1    1
    36    22    17   ar
    37     9     3    1
    38    34    28   ar
@<TRIPOS>MOLECULE
*****
 35 38 0 0 0
SMALL
GASTEIGER

@<TRIPOS>ATOM
      1 N         142.4260  139.9512  161.8198 N.3     1  UNL1       -0.2673
      2 C         140.9697  140.1126  161.4988 C.3     1  UNL1        0.1035
      3 C         140.4449  141.4421  161.0440 C.3     1  UNL1        0.1470
      4 C         139.9200  142.7716  160.5892 C.3     1  UNL1        0.1036
      5 N         140.8515  143.9397  160.4553 N.3     1  UNL1       -0.2653
      6 C         142.3078  143.7783  160.7763 C.3     1  UNL1        0.1036
      7 C         142.8327  142.4487  161.2311 C.3     1  UNL1        0.1470
      8 C         143.3575  141.1192  161.6859 C.3     1  UNL1        0.1035
      9 O         141.3764  142.6102  160.9101 O.3     1  UNL1       -0.3530
     10 C         142.9509  138.6216  162.2746 C.3     1  UNL1        0.0916
     11 C         142.9917  138.2919  163.7374 C.3     1  UNL1        0.1131
     12 C         145.1918  139.4144  164.5436 C.3     1  UNL1        0.1149
     13 N         143.7149  139.1969  164.6903 N.3     1  UNL1       -0.1526
     14 S         142.9612  139.8845  165.7899 S.O2    1  UNL1        0.0634
     15 O         143.1186  141.1954  165.0782 O.2     1  UNL1       -0.1528
     16 O         142.8038  138.5735  166.5017 O.2     1  UNL1       -0.1528
     17 C         142.2075  140.5720  166.8896 C.ar    1  UNL1        0.1222
     18 C         140.8234  140.1183  167.2476 C.ar    1  UNL1        0.0206
     19 C         140.0696  140.8058  168.3472 C.ar    1  UNL1        0.0116
     20 C         140.7001  141.9471  169.0888 C.ar    1  UNL1        0.0685
     21 C         142.0843  142.4009  168.7308 C.ar    1  UNL1        0.0116
     22 C         142.8380  141.7134  167.6312 C.ar    1  UNL1        0.0206
     23 C         139.9463  142.6347  170.1885 C.1     1  UNL1        0.1004
     24 N         139.1926  143.3222  171.2881 N.1     1  UNL1       -0.1908
     25 C         140.3266  145.2692  160.0005 C.3     1  UNL1        0.1202
     26 C         139.5843  146.1509  160.9606 C.3     1  UNL1        0.2229
     27 O         140.0590  146.2838  162.3772 O.3     1  UNL1       -0.4694
     28 C         139.8604  145.1542  163.3439 C.ar    1  UNL1        0.1930
     29 C         138.5068  144.5259  163.4954 C.ar    1  UNL1        0.1761
     30 F         137.3517  145.0273  162.6804 F       1  UNL1       -0.2009
     31 C         138.3083  143.3962  164.4621 C.ar    1  UNL1        0.0329
     32 C         139.4634  142.8948  165.2772 C.ar    1  UNL1        0.0048
     33 C         140.8170  143.5231  165.1256 C.ar    1  UNL1        0.0329
     34 C         141.0155  144.6528  164.1590 C.ar    1  UNL1        0.1761
     35 F         142.3692  145.2810  164.0074 F       1  UNL1       -0.2009
@<TRIPOS>BOND
     1    12    13    1
     2    13    11    1
     3    11    10    1
     4    10     1    1
     5     1     2    1
     6     2     3    1
     7     3     4    1
     8     4     5    1
     9     5    25    1
    10    25    26    1
    11    26    27    1
    12    27    28    1
    13    28    29   ar
    14    29    30    1
    15    29    31   ar
    16    31    32   ar
    17    32    33   ar
    18    33    34   ar
    19    34    35    1
    20     5     6    1
    21     6     7    1
    22     7     8    1
    23     7     9    1
    24    13    14    1
    25    14    15    2
    26    14    16    2
    27    14    17    1
    28    17    18   ar
    29    18    19   ar
    30    19    20   ar
    31    20    23    1
    32    23    24    3
    33    20    21   ar
    34    21    22   ar
    35     8     1    1
    36    22    17   ar
    37     9     3    1
    38    34    28   ar
@<TRIPOS>MOLECULE
*****
 35 38 0 0 0
SMALL
GASTEIGER

@<TRIPOS>ATOM
      1 N         142.1335  139.1449  159.3201 N.3     1  UNL1       -0.2673
      2 C         142.4329  138.3229  160.5386 C.3     1  UNL1        0.1035
      3 C         143.3182  138.8747  161.6164 C.3     1  UNL1        0.1470
      4 C         144.2036  139.4264  162.6943 C.3     1  UNL1        0.1036
      5 N         144.7895  140.8000  162.5536 N.3     1  UNL1       -0.2653
      6 C         144.4901  141.6219  161.3350 C.3     1  UNL1        0.1036
      7 C         143.6048  141.0702  160.2572 C.3     1  UNL1        0.1470
      8 C         142.7195  140.5185  159.1794 C.3     1  UNL1        0.1035
      9 O         143.9042  140.2483  161.4757 O.3     1  UNL1       -0.3530
     10 C         141.2481  138.5932  158.2421 C.3     1  UNL1        0.0916
     11 C         139.7890  138.3717  158.5102 C.3     1  UNL1        0.1131
     12 C         138.3044  140.5033  158.4598 C.3     1  UNL1        0.1149
     13 N         138.9921  139.4172  159.2327 N.3     1  UNL1       -0.1526
     14 S         138.8828  139.3765  160.7282 S.O2    1  UNL1        0.0634
     15 O         138.8040  137.8793  160.6817 O.2     1  UNL1       -0.1528
     16 O         138.9617  140.8737  160.7747 O.2     1  UNL1       -0.1528
     17 C         138.7736  139.3358  162.2237 C.ar    1  UNL1        0.1222
     18 C         138.1302  140.4733  162.9599 C.ar    1  UNL1        0.0206
     19 C         138.0209  140.4327  164.4553 C.ar    1  UNL1        0.0116
     20 C         138.5551  139.2545  165.2146 C.ar    1  UNL1        0.0685
     21 C         139.1986  138.1169  164.4784 C.ar    1  UNL1        0.0116
     22 C         139.3078  138.1576  162.9829 C.ar    1  UNL1        0.0206
     23 C         138.4459  139.2138  166.7101 C.1     1  UNL1        0.1004
     24 N         138.3367  139.1731  168.2055 N.1     1  UNL1       -0.1908
     25 C         145.6749  141.3517  163.6314 C.3     1  UNL1        0.1202
     26 C         145.1977  142.4894  164.4848 C.3     1  UNL1        0.2229
     27 O         143.7926  142.4953  165.0097 O.3     1  UNL1       -0.4694
     28 C         142.7163  143.2263  164.2634 C.ar    1  UNL1        0.1930
     29 C         142.8132  144.7107  164.0703 C.ar    1  UNL1        0.1761
     30 F         143.9863  145.4640  164.6235 F       1  UNL1       -0.2009
     31 C         141.7368  145.4417  163.3239 C.ar    1  UNL1        0.0329
     32 C         140.5636  144.6884  162.7707 C.ar    1  UNL1        0.0048
     33 C         140.4667  143.2041  162.9637 C.ar    1  UNL1        0.0329
     34 C         141.5430  142.4730  163.7101 C.ar    1  UNL1        0.1761
     35 F         141.4462  140.9886  163.9032 F       1  UNL1       -0.2009
@<TRIPOS>BOND
     1    12    13    1
     2    13    11    1
     3    11    10    1
     4    10     1    1
     5     1     2    1
     6     2     3    1
     7     3     4    1
     8     4     5    1
     9     5    25    1
    10    25    26    1
    11    26    27    1
    12    27    28    1
    13    28    29   ar
    14    29    30    1
    15    29    31   ar
    16    31    32   ar
    17    32    33   ar
    18    33    34   ar
    19    34    35    1
    20     5     6    1
    21     6     7    1
    22     7     8    1
    23     7     9    1
    24    13    14    1
    25    14    15    2
    26    14    16    2
    27    14    17    1
    28    17    18   ar
    29    18    19   ar
    30    19    20   ar
    31    20    23    1
    32    23    24    3
    33    20    21   ar
    34    21    22   ar
    35     8     1    1
    36    22    17   ar
    37     9     3    1
    38    34    28   ar
@<TRIPOS>MOLECULE
*****
 35 38 0 0 0
SMALL
GASTEIGER

@<TRIPOS>ATOM
      1 N         141.2139  138.6924  160.7547 N.3     1  UNL1       -0.2673
      2 C         142.5385  139.3241  161.0649 C.3     1  UNL1        0.1035
      3 C         143.1009  139.2440  162.4531 C.3     1  UNL1        0.1470
      4 C         143.6633  139.1639  163.8414 C.3     1  UNL1        0.1036
      5 N         142.9011  138.4520  164.9195 N.3     1  UNL1       -0.2653
      6 C         141.5764  137.8202  164.6093 C.3     1  UNL1        0.1036
      7 C         141.0140  137.9003  163.2210 C.3     1  UNL1        0.1470
      8 C         140.4517  137.9805  161.8328 C.3     1  UNL1        0.1035
      9 O         142.3386  138.5321  163.5312 O.3     1  UNL1       -0.3530
     10 C         140.6514  138.7725  159.3664 C.3     1  UNL1        0.0916
     11 C         139.1705  138.8967  159.1632 C.3     1  UNL1        0.1131
     12 C         137.9775  140.7329  157.7649 C.3     1  UNL1        0.1149
     13 N         138.5372  140.2534  159.0713 N.3     1  UNL1       -0.1526
     14 S         138.4636  141.1306  160.2859 S.O2    1  UNL1        0.0634
     15 O         137.6691  140.0768  160.9988 O.2     1  UNL1       -0.1528
     16 O         139.2582  142.1843  159.5729 O.2     1  UNL1       -0.1528
     17 C         138.3901  142.0077  161.5004 C.ar    1  UNL1        0.1222
     18 C         139.0547  143.3524  161.4958 C.ar    1  UNL1        0.0206
     19 C         138.9811  144.2296  162.7103 C.ar    1  UNL1        0.0116
     20 C         138.2430  143.7621  163.9296 C.ar    1  UNL1        0.0685
     21 C         137.5783  142.4173  163.9343 C.ar    1  UNL1        0.0116
     22 C         137.6519  141.5401  162.7197 C.ar    1  UNL1        0.0206
     23 C         138.1694  144.6393  165.1441 C.1     1  UNL1        0.1004
     24 N         138.0959  145.5164  166.3587 N.1     1  UNL1       -0.1908
     25 C         143.4635  138.3718  166.3078 C.3     1  UNL1        0.1202
     26 C         142.8084  139.1256  167.4271 C.3     1  UNL1        0.2229
     27 O         142.0220  140.3690  167.1346 O.3     1  UNL1       -0.4694
     28 C         141.4206  141.1580  168.2596 C.ar    1  UNL1        0.1930
     29 C         140.0891  140.7619  168.8255 C.ar    1  UNL1        0.1761
     30 F         139.3590  139.5769  168.2664 F       1  UNL1       -0.2009
     31 C         139.4877  141.5509  169.9506 C.ar    1  UNL1        0.0329
     32 C         140.2177  142.7360  170.5098 C.ar    1  UNL1        0.0048
     33 C         141.5492  143.1320  169.9439 C.ar    1  UNL1        0.0329
     34 C         142.1506  142.3431  168.8188 C.ar    1  UNL1        0.1761
     35 F         143.4821  142.7391  168.2529 F       1  UNL1       -0.2009
@<TRIPOS>BOND
     1    12    13    1
     2    13    11    1
     3    11    10    1
     4    10     1    1
     5     1     2    1
     6     2     3    1
     7     3     4    1
     8     4     5    1
     9     5    25    1
    10    25    26    1
    11    26    27    1
    12    27    28    1
    13    28    29   ar
    14    29    30    1
    15    29    31   ar
    16    31    32   ar
    17    32    33   ar
    18    33    34   ar
    19    34    35    1
    20     5     6    1
    21     6     7    1
    22     7     8    1
    23     7     9    1
    24    13    14    1
    25    14    15    2
    26    14    16    2
    27    14    17    1
    28    17    18   ar
    29    18    19   ar
    30    19    20   ar
    31    20    23    1
    32    23    24    3
    33    20    21   ar
    34    21    22   ar
    35     8     1    1
    36    22    17   ar
    37     9     3    1
    38    34    28   ar
@<TRIPOS>MOLECULE
*****
 35 38 0 0 0
SMALL
GASTEIGER

@<TRIPOS>ATOM
      1 N         138.3086  141.9661  160.3024 N.3     1  UNL1       -0.2673
      2 C         138.5576  140.5022  160.5143 C.3     1  UNL1        0.1035
      3 C         138.5232  139.9286  161.8999 C.3     1  UNL1        0.1470
      4 C         138.4888  139.3549  163.2854 C.3     1  UNL1        0.1036
      5 N         138.2055  140.2451  164.4590 N.3     1  UNL1       -0.2653
      6 C         137.9566  141.7091  164.2469 C.3     1  UNL1        0.1036
      7 C         137.9909  142.2827  162.8614 C.3     1  UNL1        0.1470
      8 C         138.0253  142.8564  161.4759 C.3     1  UNL1        0.1035
      9 O         138.2399  140.8188  163.0734 O.3     1  UNL1       -0.3530
     10 C         138.3430  142.5398  158.9168 C.3     1  UNL1        0.0916
     11 C         139.6543  142.9159  158.2930 C.3     1  UNL1        0.1131
     12 C         140.2609  145.4155  157.9267 C.3     1  UNL1        0.1149
     13 N         140.3675  144.1583  158.7379 N.3     1  UNL1       -0.1526
     14 S         141.1875  144.1433  159.9939 S.O2    1  UNL1        0.0634
     15 O         140.6754  145.5090  160.3444 O.2     1  UNL1       -0.1528
     16 O         141.6995  142.7777  159.6434 O.2     1  UNL1       -0.1528
     17 C         142.0074  144.1284  161.2499 C.ar    1  UNL1        0.1222
     18 C         141.4598  144.7298  162.5102 C.ar    1  UNL1        0.0206
     19 C         142.2797  144.7149  163.7662 C.ar    1  UNL1        0.0116
     20 C         143.6472  144.0985  163.7619 C.ar    1  UNL1        0.0685
     21 C         144.1948  143.4971  162.5015 C.ar    1  UNL1        0.0116
     22 C         143.3749  143.5120  161.2455 C.ar    1  UNL1        0.0206
     23 C         144.4671  144.0836  165.0178 C.1     1  UNL1        0.1004
     24 N         145.2870  144.0687  166.2738 N.1     1  UNL1       -0.1908
     25 C         138.1712  139.6715  165.8445 C.3     1  UNL1        0.1202
     26 C         139.4319  139.5872  166.6529 C.3     1  UNL1        0.2229
     27 O         140.5348  140.5786  166.4278 O.3     1  UNL1       -0.4694
     28 C         141.8068  140.1467  165.7603 C.ar    1  UNL1        0.1930
     29 C         142.7773  139.2683  166.4928 C.ar    1  UNL1        0.1761
     30 F         142.4759  138.8218  167.8927 F       1  UNL1       -0.2009
     31 C         144.0493  138.8364  165.8253 C.ar    1  UNL1        0.0329
     32 C         144.3508  139.2829  164.4254 C.ar    1  UNL1        0.0048
     33 C         143.3802  140.1613  163.6929 C.ar    1  UNL1        0.0329
     34 C         142.1083  140.5932  164.3604 C.ar    1  UNL1        0.1761
     35 F         141.1377  141.4716  163.6279 F       1  UNL1       -0.2009
@<TRIPOS>BOND
     1    12    13    1
     2    13    11    1
     3    11    10    1
     4    10     1    1
     5     1     2    1
     6     2     3    1
     7     3     4    1
     8     4     5    1
     9     5    25    1
    10    25    26    1
    11    26    27    1
    12    27    28    1
    13    28    29   ar
    14    29    30    1
    15    29    31   ar
    16    31    32   ar
    17    32    33   ar
    18    33    34   ar
    19    34    35    1
    20     5     6    1
    21     6     7    1
    22     7     8    1
    23     7     9    1
    24    13    14    1
    25    14    15    2
    26    14    16    2
    27    14    17    1
    28    17    18   ar
    29    18    19   ar
    30    19    20   ar
    31    20    23    1
    32    23    24    3
    33    20    21   ar
    34    21    22   ar
    35     8     1    1
    36    22    17   ar
    37     9     3    1
    38    34    28   ar
@<TRIPOS>MOLECULE
*****
 35 38 0 0 0
SMALL
GASTEIGER

@<TRIPOS>ATOM
      1 N         140.5635  142.0787  158.6862 N.3     1  UNL1       -0.2673
      2 C         142.0198  141.7204  158.7087 C.3     1  UNL1        0.1035
      3 C         142.9287  142.3391  159.7290 C.3     1  UNL1        0.1470
      4 C         143.8377  142.9578  160.7494 C.3     1  UNL1        0.1036
      5 N         143.2902  143.9349  161.7472 N.3     1  UNL1       -0.2653
      6 C         141.8337  144.2933  161.7246 C.3     1  UNL1        0.1036
      7 C         140.9249  143.6746  160.7043 C.3     1  UNL1        0.1470
      8 C         140.0160  143.0559  159.6839 C.3     1  UNL1        0.1035
      9 O         142.3812  143.3162  160.7268 O.3     1  UNL1       -0.3530
     10 C         139.6545  141.4600  157.6658 C.3     1  UNL1        0.0916
     11 C         138.7127  140.3637  158.0670 C.3     1  UNL1        0.1131
     12 C         139.9196  138.0644  158.1483 C.3     1  UNL1        0.1149
     13 N         139.2192  139.1893  158.8510 N.3     1  UNL1       -0.1526
     14 S         139.0251  139.1400  160.3375 S.O2    1  UNL1        0.0634
     15 O         137.7127  139.8513  160.1898 O.2     1  UNL1       -0.1528
     16 O         140.3375  138.4288  160.4853 O.2     1  UNL1       -0.1528
     17 C         138.8310  139.0907  161.8241 C.ar    1  UNL1        0.1222
     18 C         138.2484  140.2707  162.5440 C.ar    1  UNL1        0.0206
     19 C         138.0544  140.2214  164.0306 C.ar    1  UNL1        0.0116
     20 C         138.4429  138.9921  164.7973 C.ar    1  UNL1        0.0685
     21 C         139.0256  137.8120  164.0774 C.ar    1  UNL1        0.0116
     22 C         139.2196  137.8614  162.5908 C.ar    1  UNL1        0.0206
     23 C         138.2489  138.9428  166.2838 C.1     1  UNL1        0.1004
     24 N         138.0548  138.8935  167.7704 N.1     1  UNL1       -0.1908
     25 C         144.1991  144.5537  162.7675 C.3     1  UNL1        0.1202
     26 C         143.8273  144.5221  164.2204 C.3     1  UNL1        0.2229
     27 O         144.5081  143.5598  165.1480 O.3     1  UNL1       -0.4694
     28 C         144.2651  142.0861  165.0102 C.ar    1  UNL1        0.1930
     29 C         143.1747  141.4284  165.8030 C.ar    1  UNL1        0.1761
     30 F         142.3274  142.2444  166.7336 F       1  UNL1       -0.2009
     31 C         142.9317  139.9546  165.6652 C.ar    1  UNL1        0.0329
     32 C         143.7790  139.1385  164.7346 C.ar    1  UNL1        0.0048
     33 C         144.8694  139.7962  163.9418 C.ar    1  UNL1        0.0329
     34 C         145.1124  141.2699  164.0796 C.ar    1  UNL1        0.1761
     35 F         146.2028  141.9276  163.2867 F       1  UNL1       -0.2009
@<TRIPOS>BOND
     1    12    13    1
     2    13    11    1
     3    11    10    1
     4    10     1    1
     5     1     2    1
     6     2     3    1
     7     3     4    1
     8     4     5    1
     9     5    25    1
    10    25    26    1
    11    26    27    1
    12    27    28    1
    13    28    29   ar
    14    29    30    1
    15    29    31   ar
    16    31    32   ar
    17    32    33   ar
    18    33    34   ar
    19    34    35    1
    20     5     6    1
    21     6     7    1
    22     7     8    1
    23     7     9    1
    24    13    14    1
    25    14    15    2
    26    14    16    2
    27    14    17    1
    28    17    18   ar
    29    18    19   ar
    30    19    20   ar
    31    20    23    1
    32    23    24    3
    33    20    21   ar
    34    21    22   ar
    35     8     1    1
    36    22    17   ar
    37     9     3    1
    38    34    28   ar
@<TRIPOS>MOLECULE
*****
 35 38 0 0 0
SMALL
GASTEIGER

@<TRIPOS>ATOM
      1 N         139.6528  142.2857  159.8619 N.3     1  UNL1       -0.2673
      2 C         139.2727  143.2695  160.9286 C.3     1  UNL1        0.1035
      3 C         140.3371  143.9269  161.7562 C.3     1  UNL1        0.1470
      4 C         141.4015  144.5843  162.5838 C.3     1  UNL1        0.1036
      5 N         142.8459  144.2579  162.3448 N.3     1  UNL1       -0.2653
      6 C         143.2259  143.2741  161.2781 C.3     1  UNL1        0.1036
      7 C         142.1616  142.6167  160.4505 C.3     1  UNL1        0.1470
      8 C         141.0973  141.9594  159.6229 C.3     1  UNL1        0.1035
      9 O         141.7815  143.6005  161.5171 O.3     1  UNL1       -0.3530
     10 C         138.5885  141.6283  159.0343 C.3     1  UNL1        0.0916
     11 C         137.9940  140.3238  159.4756 C.3     1  UNL1        0.1131
     12 C         139.6129  138.2926  159.5350 C.3     1  UNL1        0.1149
     13 N         138.8241  139.3465  160.2541 N.3     1  UNL1       -0.1526
     14 S         138.8654  139.4231  161.7515 S.O2    1  UNL1        0.0634
     15 O         140.2655  138.8849  161.7405 O.2     1  UNL1       -0.1528
     16 O         137.4653  139.9613  161.7626 O.2     1  UNL1       -0.1528
     17 C         138.9067  139.4998  163.2490 C.ar    1  UNL1        0.1222
     18 C         138.9276  138.2408  164.0642 C.ar    1  UNL1        0.0206
     19 C         138.9689  138.3175  165.5616 C.ar    1  UNL1        0.0116
     20 C         138.9892  139.6531  166.2439 C.ar    1  UNL1        0.0685
     21 C         138.9684  140.9122  165.4288 C.ar    1  UNL1        0.0116
     22 C         138.9271  140.8355  163.9313 C.ar    1  UNL1        0.0206
     23 C         139.0305  139.7298  167.7414 C.1     1  UNL1        0.1004
     24 N         139.0718  139.8065  169.2389 N.1     1  UNL1       -0.1908
     25 C         143.9102  144.9153  163.1724 C.3     1  UNL1        0.1202
     26 C         143.9675  144.6719  164.6515 C.3     1  UNL1        0.2229
     27 O         144.7386  143.5034  165.1899 O.3     1  UNL1       -0.4694
     28 C         144.2858  142.1047  164.8921 C.ar    1  UNL1        0.1930
     29 C         143.0327  141.5721  165.5214 C.ar    1  UNL1        0.1761
     30 F         142.2323  142.4381  166.4484 F       1  UNL1       -0.2009
     31 C         142.5799  140.1733  165.2236 C.ar    1  UNL1        0.0329
     32 C         143.3803  139.3073  164.2966 C.ar    1  UNL1        0.0048
     33 C         144.6334  139.8399  163.6673 C.ar    1  UNL1        0.0329
     34 C         145.0862  141.2386  163.9651 C.ar    1  UNL1        0.1761
     35 F         146.3394  141.7712  163.3359 F       1  UNL1       -0.2009
@<TRIPOS>BOND
     1    12    13    1
     2    13    11    1
     3    11    10    1
     4    10     1    1
     5     1     2    1
     6     2     3    1
     7     3     4    1
     8     4     5    1
     9     5    25    1
    10    25    26    1
    11    26    27    1
    12    27    28    1
    13    28    29   ar
    14    29    30    1
    15    29    31   ar
    16    31    32   ar
    17    32    33   ar
    18    33    34   ar
    19    34    35    1
    20     5     6    1
    21     6     7    1
    22     7     8    1
    23     7     9    1
    24    13    14    1
    25    14    15    2
    26    14    16    2
    27    14    17    1
    28    17    18   ar
    29    18    19   ar
    30    19    20   ar
    31    20    23    1
    32    23    24    3
    33    20    21   ar
    34    21    22   ar
    35     8     1    1
    36    22    17   ar
    37     9     3    1
    38    34    28   ar
@<TRIPOS>MOLECULE
*****
 35 38 0 0 0
SMALL
GASTEIGER

@<TRIPOS>ATOM
      1 N         142.0387  143.9380  162.7128 N.3     1  UNL1       -0.2673
      2 C         140.7818  143.7545  163.5106 C.3     1  UNL1        0.1035
      3 C         139.7328  142.7884  163.0456 C.3     1  UNL1        0.1470
      4 C         138.6837  141.8223  162.5806 C.3     1  UNL1        0.1036
      5 N         138.8916  141.0398  161.3179 N.3     1  UNL1       -0.2653
      6 C         140.1486  141.2234  160.5201 C.3     1  UNL1        0.1036
      7 C         141.1976  142.1895  160.9851 C.3     1  UNL1        0.1470
      8 C         142.2466  143.1555  161.4501 C.3     1  UNL1        0.1035
      9 O         139.9407  142.0059  161.7829 O.3     1  UNL1       -0.3530
     10 C         143.0878  144.9041  163.1778 C.3     1  UNL1        0.0916
     11 C         144.2137  144.4277  164.0469 C.3     1  UNL1        0.1131
     12 C         145.2598  142.0923  163.5979 C.3     1  UNL1        0.1149
     13 N         144.3349  142.9716  164.3861 N.3     1  UNL1       -0.1526
     14 S         143.5312  142.3948  165.5137 S.O2    1  UNL1        0.0634
     15 O         142.9803  141.3515  164.5873 O.2     1  UNL1       -0.1528
     16 O         144.0821  143.4380  166.4400 O.2     1  UNL1       -0.1528
     17 C         142.7275  141.8179  166.6412 C.ar    1  UNL1        0.1222
     18 C         141.5584  140.9249  166.3487 C.ar    1  UNL1        0.0206
     19 C         140.7547  140.3481  167.4762 C.ar    1  UNL1        0.0116
     20 C         141.1201  140.6643  168.8962 C.ar    1  UNL1        0.0685
     21 C         142.2892  141.5574  169.1888 C.ar    1  UNL1        0.0116
     22 C         143.0929  142.1342  168.0613 C.ar    1  UNL1        0.0206
     23 C         140.3163  140.0875  170.0238 C.1     1  UNL1        0.1004
     24 N         139.5126  139.5107  171.1513 N.1     1  UNL1       -0.1908
     25 C         137.8426  140.0738  160.8529 C.3     1  UNL1        0.1202
     26 C         137.6235  138.7893  161.5961 C.3     1  UNL1        0.2229
     27 O         138.6531  137.7004  161.5314 O.3     1  UNL1       -0.4694
     28 C         139.8755  137.7717  162.3978 C.ar    1  UNL1        0.1930
     29 C         139.7486  137.6375  163.8864 C.ar    1  UNL1        0.1761
     30 F         138.3993  137.4321  164.5086 F       1  UNL1       -0.2009
     31 C         140.9711  137.7088  164.7527 C.ar    1  UNL1        0.0329
     32 C         142.3204  137.9142  164.1305 C.ar    1  UNL1        0.0048
     33 C         142.4473  138.0483  162.6419 C.ar    1  UNL1        0.0329
     34 C         141.2249  137.9771  161.7755 C.ar    1  UNL1        0.1761
     35 F         141.3517  138.1112  160.2870 F       1  UNL1       -0.2009
@<TRIPOS>BOND
     1    12    13    1
     2    13    11    1
     3    11    10    1
     4    10     1    1
     5     1     2    1
     6     2     3    1
     7     3     4    1
     8     4     5    1
     9     5    25    1
    10    25    26    1
    11    26    27    1
    12    27    28    1
    13    28    29   ar
    14    29    30    1
    15    29    31   ar
    16    31    32   ar
    17    32    33   ar
    18    33    34   ar
    19    34    35    1
    20     5     6    1
    21     6     7    1
    22     7     8    1
    23     7     9    1
    24    13    14    1
    25    14    15    2
    26    14    16    2
    27    14    17    1
    28    17    18   ar
    29    18    19   ar
    30    19    20   ar
    31    20    23    1
    32    23    24    3
    33    20    21   ar
    34    21    22   ar
    35     8     1    1
    36    22    17   ar
    37     9     3    1
    38    34    28   ar
@<TRIPOS>MOLECULE
*****
 35 38 0 0 0
SMALL
GASTEIGER

@<TRIPOS>ATOM
      1 N         139.7999  139.8263  159.6303 N.3     1  UNL1       -0.2673
      2 C         140.1010  141.2676  159.3442 C.3     1  UNL1        0.1035
      3 C         139.5375  142.3411  160.2274 C.3     1  UNL1        0.1470
      4 C         138.9740  143.4147  161.1106 C.3     1  UNL1        0.1036
      5 N         138.1094  143.0469  162.2799 N.3     1  UNL1       -0.2653
      6 C         137.8083  141.6055  162.5659 C.3     1  UNL1        0.1036
      7 C         138.3718  140.5320  161.6828 C.3     1  UNL1        0.1470
      8 C         138.9353  139.4585  160.7996 C.3     1  UNL1        0.1035
      9 O         138.6729  141.9733  161.3967 O.3     1  UNL1       -0.3530
     10 C         140.3634  138.7527  158.7471 C.3     1  UNL1        0.0916
     11 C         141.7577  138.2488  158.9754 C.3     1  UNL1        0.1131
     12 C         143.7095  139.9632  158.9418 C.3     1  UNL1        0.1149
     13 N         142.7521  139.0997  159.7084 N.3     1  UNL1       -0.1526
     14 S         142.7891  139.0871  161.2078 S.O2    1  UNL1        0.0634
     15 O         142.6621  137.5925  161.1984 O.2     1  UNL1       -0.1528
     16 O         142.9160  140.5817  161.2173 O.2     1  UNL1       -0.1528
     17 C         142.8260  139.0744  162.7073 C.ar    1  UNL1        0.1222
     18 C         141.5498  138.9671  163.4881 C.ar    1  UNL1        0.0206
     19 C         141.5867  138.9544  164.9876 C.ar    1  UNL1        0.0116
     20 C         142.8999  139.0491  165.7063 C.ar    1  UNL1        0.0685
     21 C         144.1762  139.1565  164.9255 C.ar    1  UNL1        0.0116
     22 C         144.1393  139.1691  163.4260 C.ar    1  UNL1        0.0206
     23 C         142.9369  139.0365  167.2058 C.1     1  UNL1        0.1004
     24 N         142.9738  139.0238  168.7053 N.1     1  UNL1       -0.1908
     25 C         137.5459  144.1204  163.1630 C.3     1  UNL1        0.1202
     26 C         138.0097  144.2425  164.5844 C.3     1  UNL1        0.2229
     27 O         139.2891  144.9603  164.8967 O.3     1  UNL1       -0.4694
     28 C         140.6036  144.3587  164.4965 C.ar    1  UNL1        0.1930
     29 C         141.1309  143.1573  165.2234 C.ar    1  UNL1        0.1761
     30 F         140.3438  142.5574  166.3506 F       1  UNL1       -0.2009
     31 C         142.4454  142.5556  164.8231 C.ar    1  UNL1        0.0329
     32 C         143.2325  143.1555  163.6960 C.ar    1  UNL1        0.0048
     33 C         142.7052  144.3569  162.9690 C.ar    1  UNL1        0.0329
     34 C         141.3908  144.9586  163.3693 C.ar    1  UNL1        0.1761
     35 F         140.8635  146.1600  162.6423 F       1  UNL1       -0.2009
@<TRIPOS>BOND
     1    12    13    1
     2    13    11    1
     3    11    10    1
     4    10     1    1
     5     1     2    1
     6     2     3    1
     7     3     4    1
     8     4     5    1
     9     5    25    1
    10    25    26    1
    11    26    27    1
    12    27    28    1
    13    28    29   ar
    14    29    30    1
    15    29    31   ar
    16    31    32   ar
    17    32    33   ar
    18    33    34   ar
    19    34    35    1
    20     5     6    1
    21     6     7    1
    22     7     8    1
    23     7     9    1
    24    13    14    1
    25    14    15    2
    26    14    16    2
    27    14    17    1
    28    17    18   ar
    29    18    19   ar
    30    19    20   ar
    31    20    23    1
    32    23    24    3
    33    20    21   ar
    34    21    22   ar
    35     8     1    1
    36    22    17   ar
    37     9     3    1
    38    34    28   ar
