@<TRIPOS>MOLECULE
*****
 28 32 0 0 0
SMALL
GASTEIGER

@<TRIPOS>ATOM
      1 C         140.0034  139.0768  161.8655 C.ar    1  UNL1        0.0213
      2 C         139.2858  138.5581  160.6547 C.ar    1  UNL1        0.1006
      3 N         139.9039  138.7056  159.2960 N.ar    1  UNL1       -0.2246
      4 C         141.2397  139.3718  159.1481 C.ar    1  UNL1        0.1702
      5 N         142.0908  139.6583  157.9465 N.ar    1  UNL1       -0.2052
      6 C         143.3345  140.3539  158.4148 C.ar    1  UNL1        0.1647
      7 S         143.2520  140.4974  159.9056 S.2     1  UNL1       -0.0499
      8 C         141.9574  139.8904  160.3588 C.ar    1  UNL1        0.0679
      9 C         141.3392  139.7429  161.7175 C.ar    1  UNL1        0.0112
     10 C         137.5309  138.4869  167.3005 C.3     1  UNL1        0.0521
     11 C         138.1490  138.6344  165.9418 C.ar    1  UNL1        0.0594
     12 C         138.8303  137.4640  165.2967 C.ar    1  UNL1        0.0147
     13 C         139.4485  137.6115  163.9379 C.ar    1  UNL1        0.0028
     14 C         139.3853  138.9293  163.2243 C.ar    1  UNL1        0.0207
     15 C         138.7040  140.0997  163.8693 C.ar    1  UNL1        0.0984
     16 N         138.0859  139.9522  165.2280 N.ar    1  UNL1       -0.2481
     17 N         144.4627  140.8237  157.5449 N.pl3   1  UNL1       -0.2880
     18 C         144.7958  140.0832  156.2837 C.3     1  UNL1        0.0940
     19 C         145.9239  140.5529  155.4138 C.3     1  UNL1        0.0375
     20 C         146.7189  141.7631  155.8051 C.3     1  UNL1        0.0609
     21 C         146.3858  142.5037  157.0663 C.3     1  UNL1        0.0375
     22 C         145.2577  142.0340  157.9362 C.3     1  UNL1        0.0940
     23 N         147.8470  142.2329  154.9353 N.3     1  UNL1       -0.2738
     24 C         147.5963  143.2605  153.8717 C.3     1  UNL1        0.0720
     25 C         148.7243  143.7302  153.0018 C.3     1  UNL1        0.0174
     26 C         150.1032  143.1725  153.1955 C.3     1  UNL1        0.0029
     27 C         150.3540  142.1449  154.2591 C.3     1  UNL1        0.0174
     28 C         149.2259  141.6751  155.1290 C.3     1  UNL1        0.0720
@<TRIPOS>BOND
     1    10    11    1
     2    11    12   ar
     3    12    13   ar
     4    13    14   ar
     5    14     1    1
     6     1     2   ar
     7     2     3   ar
     8     3     4   ar
     9     4     5   ar
    10     5     6   ar
    11     6    17    1
    12    17    18    1
    13    18    19    1
    14    19    20    1
    15    20    23    1
    16    23    24    1
    17    24    25    1
    18    25    26    1
    19    26    27    1
    20    27    28    1
    21    20    21    1
    22    21    22    1
    23     6     7   ar
    24     7     8   ar
    25     8     9   ar
    26    14    15   ar
    27    15    16   ar
    28    16    11   ar
    29     9     1   ar
    30     8     4   ar
    31    22    17    1
    32    28    23    1
@<TRIPOS>MOLECULE
*****
 28 32 0 0 0
SMALL
GASTEIGER

@<TRIPOS>ATOM
      1 C         139.0963  141.5981  164.6729 C.ar    1  UNL1        0.0213
      2 C         137.7201  141.3085  164.1512 C.ar    1  UNL1        0.1006
      3 N         137.3479  141.7092  162.7545 N.ar    1  UNL1       -0.2246
      4 C         138.3519  142.3994  161.8795 C.ar    1  UNL1        0.1702
      5 N         138.2734  142.9090  160.4708 N.ar    1  UNL1       -0.2052
      6 C         139.6011  143.5135  160.1220 C.ar    1  UNL1        0.1647
      7 S         140.5001  143.3776  161.3150 S.2     1  UNL1       -0.0499
      8 C         139.7280  142.6891  162.4012 C.ar    1  UNL1        0.0679
      9 C         140.1002  142.2884  163.7979 C.ar    1  UNL1        0.0112
     10 C         140.5854  139.9954  170.2599 C.3     1  UNL1        0.0521
     11 C         140.2131  140.3961  168.8632 C.ar    1  UNL1        0.0594
     12 C         140.7188  141.6884  168.2937 C.ar    1  UNL1        0.0147
     13 C         140.3466  142.0890  166.8969 C.ar    1  UNL1        0.0028
     14 C         139.4686  141.1975  166.0697 C.ar    1  UNL1        0.0207
     15 C         138.9629  139.9052  166.6393 C.ar    1  UNL1        0.0984
     16 N         139.3351  139.5046  168.0360 N.ar    1  UNL1       -0.2481
     17 N         139.9659  144.1434  158.8103 N.pl3   1  UNL1       -0.2880
     18 C         140.9544  145.2707  158.7689 C.3     1  UNL1        0.0940
     19 C         141.3192  145.9006  157.4574 C.3     1  UNL1        0.0375
     20 C         140.6954  145.4031  156.1873 C.3     1  UNL1        0.0609
     21 C         139.7068  144.2757  156.2287 C.3     1  UNL1        0.0375
     22 C         139.3420  143.6459  157.5402 C.3     1  UNL1        0.0940
     23 N         141.0601  146.0330  154.8757 N.3     1  UNL1       -0.2738
     24 C         140.3592  147.2789  154.4213 C.3     1  UNL1        0.0720
     25 C         140.7239  147.9088  153.1098 C.3     1  UNL1        0.0174
     26 C         141.7895  147.2927  152.2526 C.3     1  UNL1        0.0029
     27 C         142.4904  146.0468  152.7069 C.3     1  UNL1        0.0174
     28 C         142.1257  145.4170  154.0184 C.3     1  UNL1        0.0720
@<TRIPOS>BOND
     1    10    11    1
     2    11    12   ar
     3    12    13   ar
     4    13    14   ar
     5    14     1    1
     6     1     2   ar
     7     2     3   ar
     8     3     4   ar
     9     4     5   ar
    10     5     6   ar
    11     6    17    1
    12    17    18    1
    13    18    19    1
    14    19    20    1
    15    20    23    1
    16    23    24    1
    17    24    25    1
    18    25    26    1
    19    26    27    1
    20    27    28    1
    21    20    21    1
    22    21    22    1
    23     6     7   ar
    24     7     8   ar
    25     8     9   ar
    26    14    15   ar
    27    15    16   ar
    28    16    11   ar
    29     9     1   ar
    30     8     4   ar
    31    22    17    1
    32    28    23    1
@<TRIPOS>MOLECULE
*****
 28 32 0 0 0
SMALL
GASTEIGER

@<TRIPOS>ATOM
      1 C         139.9412  145.4073  157.2488 C.ar    1  UNL1        0.0213
      2 C         139.4647  144.0002  157.0415 C.ar    1  UNL1        0.1006
      3 N         139.4520  143.0358  158.1903 N.ar    1  UNL1       -0.2246
      4 C         139.9159  143.4785  159.5463 C.ar    1  UNL1        0.1702
      5 N         140.0164  142.7571  160.8577 N.ar    1  UNL1       -0.2052
      6 C         140.5550  143.7184  161.8754 C.ar    1  UNL1        0.1647
      7 S         140.7874  145.0339  161.1930 S.2     1  UNL1       -0.0499
      8 C         140.3924  144.8856  159.7536 C.ar    1  UNL1        0.0679
      9 C         140.4051  145.8500  158.6048 C.ar    1  UNL1        0.0112
     10 C         139.9920  149.2651  152.6536 C.3     1  UNL1        0.0521
     11 C         139.9793  148.3007  153.8024 C.ar    1  UNL1        0.0594
     12 C         139.2045  148.6248  155.0452 C.ar    1  UNL1        0.0147
     13 C         139.1918  147.6603  156.1940 C.ar    1  UNL1        0.0028
     14 C         139.9539  146.3718  156.1000 C.ar    1  UNL1        0.0207
     15 C         140.7287  146.0477  154.8571 C.ar    1  UNL1        0.0984
     16 N         140.7415  147.0121  153.7084 N.ar    1  UNL1       -0.2481
     17 N         140.8155  143.4172  163.3216 N.pl3   1  UNL1       -0.2880
     18 C         139.7048  143.5309  164.3233 C.3     1  UNL1        0.0940
     19 C         139.9652  143.2297  165.7694 C.3     1  UNL1        0.0375
     20 C         141.3364  142.8148  166.2139 C.3     1  UNL1        0.0609
     21 C         142.4471  142.7011  165.2123 C.3     1  UNL1        0.0375
     22 C         142.1867  143.0023  163.7661 C.3     1  UNL1        0.0940
     23 N         141.5969  142.5136  167.6601 N.3     1  UNL1       -0.2738
     24 C         142.9762  142.1327  168.1102 C.3     1  UNL1        0.0720
     25 C         143.2367  141.8315  169.5564 C.3     1  UNL1        0.0174
     26 C         142.1180  141.9112  170.5524 C.3     1  UNL1        0.0029
     27 C         140.7388  142.2921  170.1023 C.3     1  UNL1        0.0174
     28 C         140.4782  142.5933  168.6562 C.3     1  UNL1        0.0720
@<TRIPOS>BOND
     1    10    11    1
     2    11    12   ar
     3    12    13   ar
     4    13    14   ar
     5    14     1    1
     6     1     2   ar
     7     2     3   ar
     8     3     4   ar
     9     4     5   ar
    10     5     6   ar
    11     6    17    1
    12    17    18    1
    13    18    19    1
    14    19    20    1
    15    20    23    1
    16    23    24    1
    17    24    25    1
    18    25    26    1
    19    26    27    1
    20    27    28    1
    21    20    21    1
    22    21    22    1
    23     6     7   ar
    24     7     8   ar
    25     8     9   ar
    26    14    15   ar
    27    15    16   ar
    28    16    11   ar
    29     9     1   ar
    30     8     4   ar
    31    22    17    1
    32    28    23    1
@<TRIPOS>MOLECULE
*****
 28 32 0 0 0
SMALL
GASTEIGER

@<TRIPOS>ATOM
      1 C         143.6585  141.2946  159.4695 C.ar    1  UNL1        0.0213
      2 C         144.2410  141.6276  158.1280 C.ar    1  UNL1        0.1006
      3 N         144.2587  140.5944  157.0407 N.ar    1  UNL1       -0.2246
      4 C         143.6940  139.2282  157.2951 C.ar    1  UNL1        0.1702
      5 N         143.5737  138.0136  156.4231 N.ar    1  UNL1       -0.2052
      6 C         142.9169  136.9300  157.2258 C.ar    1  UNL1        0.1647
      7 S         142.6313  137.4749  158.5938 S.2     1  UNL1       -0.0499
      8 C         143.1116  138.8952  158.6366 C.ar    1  UNL1        0.0679
      9 C         143.0938  139.9285  159.7239 C.ar    1  UNL1        0.0112
     10 C         143.5873  145.4275  163.8186 C.3     1  UNL1        0.0521
     11 C         143.6051  144.3943  162.7314 C.ar    1  UNL1        0.0594
     12 C         144.5994  143.2722  162.7793 C.ar    1  UNL1        0.0147
     13 C         144.6172  142.2390  161.6920 C.ar    1  UNL1        0.0028
     14 C         143.6407  142.3279  160.5569 C.ar    1  UNL1        0.0207
     15 C         142.6465  143.4500  160.5089 C.ar    1  UNL1        0.0984
     16 N         142.6286  144.4832  161.5962 N.ar    1  UNL1       -0.2481
     17 N         142.6012  135.5446  156.7449 N.pl3   1  UNL1       -0.2880
     18 C         143.3037  134.3636  157.3464 C.3     1  UNL1        0.0940
     19 C         142.9879  132.9784  156.8656 C.3     1  UNL1        0.0375
     20 C         141.9697  132.7740  155.7833 C.3     1  UNL1        0.0609
     21 C         141.2672  133.9550  155.1818 C.3     1  UNL1        0.0375
     22 C         141.5829  135.3403  155.6626 C.3     1  UNL1        0.0940
     23 N         141.6539  131.3887  155.3024 N.3     1  UNL1       -0.2738
     24 C         142.6461  130.2814  155.5014 C.3     1  UNL1        0.0720
     25 C         142.3304  128.8961  155.0205 C.3     1  UNL1        0.0174
     26 C         141.0225  128.6181  154.3407 C.3     1  UNL1        0.0029
     27 C         140.0304  129.7254  154.1417 C.3     1  UNL1        0.0174
     28 C         140.3461  131.1107  154.6226 C.3     1  UNL1        0.0720
@<TRIPOS>BOND
     1    10    11    1
     2    11    12   ar
     3    12    13   ar
     4    13    14   ar
     5    14     1    1
     6     1     2   ar
     7     2     3   ar
     8     3     4   ar
     9     4     5   ar
    10     5     6   ar
    11     6    17    1
    12    17    18    1
    13    18    19    1
    14    19    20    1
    15    20    23    1
    16    23    24    1
    17    24    25    1
    18    25    26    1
    19    26    27    1
    20    27    28    1
    21    20    21    1
    22    21    22    1
    23     6     7   ar
    24     7     8   ar
    25     8     9   ar
    26    14    15   ar
    27    15    16   ar
    28    16    11   ar
    29     9     1   ar
    30     8     4   ar
    31    22    17    1
    32    28    23    1
@<TRIPOS>MOLECULE
*****
 28 32 0 0 0
SMALL
GASTEIGER

@<TRIPOS>ATOM
      1 C         142.8961  137.6941  156.7410 C.ar    1  UNL1        0.0213
      2 C         143.5902  138.9987  156.4842 C.ar    1  UNL1        0.1006
      3 N         143.8909  139.9254  157.6247 N.ar    1  UNL1       -0.2246
      4 C         143.4976  139.5475  159.0220 C.ar    1  UNL1        0.1702
      5 N         143.6612  140.2520  160.3361 N.ar    1  UNL1       -0.2052
      6 C         143.0683  139.3827  161.4051 C.ar    1  UNL1        0.1647
      7 S         142.5382  138.1409  160.7516 S.2     1  UNL1       -0.0499
      8 C         142.8035  138.2428  159.2788 C.ar    1  UNL1        0.0679
      9 C         142.5028  137.3161  158.1383 C.ar    1  UNL1        0.0112
     10 C         141.6931  133.9871  152.1791 C.3     1  UNL1        0.0521
     11 C         141.9939  134.9138  153.3195 C.ar    1  UNL1        0.0594
     12 C         142.3635  134.3558  154.6619 C.ar    1  UNL1        0.0147
     13 C         142.6643  135.2825  155.8024 C.ar    1  UNL1        0.0028
     14 C         142.5954  136.7673  155.6005 C.ar    1  UNL1        0.0207
     15 C         142.2257  137.3253  154.2581 C.ar    1  UNL1        0.0984
     16 N         141.9250  136.3986  153.1177 N.ar    1  UNL1       -0.2481
     17 N         143.0148  139.6995  162.8703 N.pl3   1  UNL1       -0.2880
     18 C         142.9168  138.5896  163.8745 C.3     1  UNL1        0.0940
     19 C         142.8633  138.9063  165.3397 C.3     1  UNL1        0.0375
     20 C         142.9078  140.3330  165.8007 C.3     1  UNL1        0.0609
     21 C         143.0058  141.4430  164.7965 C.3     1  UNL1        0.0375
     22 C         143.0593  141.1262  163.3313 C.3     1  UNL1        0.0940
     23 N         142.8543  140.6498  167.2659 N.3     1  UNL1       -0.2738
     24 C         142.5665  139.5625  168.2583 C.3     1  UNL1        0.0720
     25 C         142.5130  139.8792  169.7235 C.3     1  UNL1        0.0174
     26 C         142.7473  141.2833  170.1962 C.3     1  UNL1        0.0029
     27 C         143.0351  142.3707  169.2038 C.3     1  UNL1        0.0174
     28 C         143.0886  142.0539  167.7387 C.3     1  UNL1        0.0720
@<TRIPOS>BOND
     1    10    11    1
     2    11    12   ar
     3    12    13   ar
     4    13    14   ar
     5    14     1    1
     6     1     2   ar
     7     2     3   ar
     8     3     4   ar
     9     4     5   ar
    10     5     6   ar
    11     6    17    1
    12    17    18    1
    13    18    19    1
    14    19    20    1
    15    20    23    1
    16    23    24    1
    17    24    25    1
    18    25    26    1
    19    26    27    1
    20    27    28    1
    21    20    21    1
    22    21    22    1
    23     6     7   ar
    24     7     8   ar
    25     8     9   ar
    26    14    15   ar
    27    15    16   ar
    28    16    11   ar
    29     9     1   ar
    30     8     4   ar
    31    22    17    1
    32    28    23    1
@<TRIPOS>MOLECULE
*****
 28 32 0 0 0
SMALL
GASTEIGER

@<TRIPOS>ATOM
      1 C         144.9164  141.5503  157.4755 C.ar    1  UNL1        0.0213
      2 C         144.4391  140.1311  157.3866 C.ar    1  UNL1        0.1006
      3 N         143.7183  139.5083  158.5452 N.ar    1  UNL1       -0.2246
      4 C         143.4748  140.3047  159.7928 C.ar    1  UNL1        0.1702
      5 N         142.7977  139.9614  161.0866 N.ar    1  UNL1       -0.2052
      6 C         142.8566  141.1685  161.9751 C.ar    1  UNL1        0.1647
      7 S         143.5701  142.2578  161.2304 S.2     1  UNL1       -0.0499
      8 C         143.9521  141.7239  159.8817 C.ar    1  UNL1        0.0679
      9 C         144.6729  142.3467  158.7231 C.ar    1  UNL1        0.0112
     10 C         147.7998  144.0417  152.8409 C.3     1  UNL1        0.0521
     11 C         147.0790  143.4188  153.9995 C.ar    1  UNL1        0.0594
     12 C         147.8577  142.8242  155.1353 C.ar    1  UNL1        0.0147
     13 C         147.1369  142.2014  156.2940 C.ar    1  UNL1        0.0028
     14 C         145.6373  142.1732  156.3168 C.ar    1  UNL1        0.0207
     15 C         144.8586  142.7678  155.1811 C.ar    1  UNL1        0.0984
     16 N         145.5794  143.3906  154.0224 N.ar    1  UNL1       -0.2481
     17 N         142.2999  141.2688  163.3644 N.pl3   1  UNL1       -0.2880
     18 C         142.5560  140.1728  164.3559 C.3     1  UNL1        0.0940
     19 C         141.9993  140.2730  165.7451 C.3     1  UNL1        0.0375
     20 C         141.1864  141.4692  166.1428 C.3     1  UNL1        0.0609
     21 C         140.9303  142.5653  165.1513 C.3     1  UNL1        0.0375
     22 C         141.4870  142.4650  163.7620 C.3     1  UNL1        0.0940
     23 N         140.6296  141.5695  167.5321 N.3     1  UNL1       -0.2738
     24 C         139.8810  140.4130  168.1253 C.3     1  UNL1        0.0720
     25 C         139.3242  140.5132  169.5145 C.3     1  UNL1        0.0174
     26 C         139.5161  141.7700  170.3105 C.3     1  UNL1        0.0029
     27 C         140.2647  142.9265  169.7172 C.3     1  UNL1        0.0174
     28 C         140.8215  142.8263  168.3281 C.3     1  UNL1        0.0720
@<TRIPOS>BOND
     1    10    11    1
     2    11    12   ar
     3    12    13   ar
     4    13    14   ar
     5    14     1    1
     6     1     2   ar
     7     2     3   ar
     8     3     4   ar
     9     4     5   ar
    10     5     6   ar
    11     6    17    1
    12    17    18    1
    13    18    19    1
    14    19    20    1
    15    20    23    1
    16    23    24    1
    17    24    25    1
    18    25    26    1
    19    26    27    1
    20    27    28    1
    21    20    21    1
    22    21    22    1
    23     6     7   ar
    24     7     8   ar
    25     8     9   ar
    26    14    15   ar
    27    15    16   ar
    28    16    11   ar
    29     9     1   ar
    30     8     4   ar
    31    22    17    1
    32    28    23    1
@<TRIPOS>MOLECULE
*****
 28 32 0 0 0
SMALL
GASTEIGER

@<TRIPOS>ATOM
      1 C         141.1244  141.9087  164.9073 C.ar    1  UNL1        0.0213
      2 C         140.1479  142.8043  164.2043 C.ar    1  UNL1        0.1006
      3 N         139.7585  142.5207  162.7838 N.ar    1  UNL1       -0.2246
      4 C         140.3456  141.3416  162.0663 C.ar    1  UNL1        0.1702
      5 N         140.1524  140.8152  160.6750 N.ar    1  UNL1       -0.2052
      6 C         141.0095  139.5942  160.5182 C.ar    1  UNL1        0.1647
      7 S         141.7324  139.3660  161.8125 S.2     1  UNL1       -0.0499
      8 C         141.3221  140.4459  162.7693 C.ar    1  UNL1        0.0679
      9 C         141.7115  140.7295  164.1898 C.ar    1  UNL1        0.0112
     10 C         142.6821  143.0428  170.5896 C.3     1  UNL1        0.0521
     11 C         142.2927  142.7593  169.1691 C.ar    1  UNL1        0.0594
     12 C         140.8453  142.7529  168.7752 C.ar    1  UNL1        0.0147
     13 C         140.4559  142.4694  167.3546 C.ar    1  UNL1        0.0028
     14 C         141.5138  142.1922  166.3279 C.ar    1  UNL1        0.0207
     15 C         142.9611  142.1986  166.7218 C.ar    1  UNL1        0.0984
     16 N         143.3506  142.4821  168.1423 N.ar    1  UNL1       -0.2481
     17 N         141.1237  138.7496  159.2837 N.pl3   1  UNL1       -0.2880
     18 C         139.9199  138.5185  158.4192 C.3     1  UNL1        0.0940
     19 C         140.0340  137.6740  157.1848 C.3     1  UNL1        0.0375
     20 C         141.3520  137.0606  156.8150 C.3     1  UNL1        0.0609
     21 C         142.5558  137.2918  157.6795 C.3     1  UNL1        0.0375
     22 C         142.4416  138.1363  158.9139 C.3     1  UNL1        0.0940
     23 N         141.4662  136.2161  155.5806 N.3     1  UNL1       -0.2738
     24 C         142.1013  134.8593  155.6562 C.3     1  UNL1        0.0720
     25 C         142.2155  134.0148  154.4219 C.3     1  UNL1        0.0174
     26 C         141.6946  134.5270  153.1119 C.3     1  UNL1        0.0029
     27 C         141.0594  135.8838  153.0362 C.3     1  UNL1        0.0174
     28 C         140.9452  136.7283  154.2705 C.3     1  UNL1        0.0720
@<TRIPOS>BOND
     1    10    11    1
     2    11    12   ar
     3    12    13   ar
     4    13    14   ar
     5    14     1    1
     6     1     2   ar
     7     2     3   ar
     8     3     4   ar
     9     4     5   ar
    10     5     6   ar
    11     6    17    1
    12    17    18    1
    13    18    19    1
    14    19    20    1
    15    20    23    1
    16    23    24    1
    17    24    25    1
    18    25    26    1
    19    26    27    1
    20    27    28    1
    21    20    21    1
    22    21    22    1
    23     6     7   ar
    24     7     8   ar
    25     8     9   ar
    26    14    15   ar
    27    15    16   ar
    28    16    11   ar
    29     9     1   ar
    30     8     4   ar
    31    22    17    1
    32    28    23    1
@<TRIPOS>MOLECULE
*****
 28 32 0 0 0
SMALL
GASTEIGER

@<TRIPOS>ATOM
      1 C         140.0470  142.2989  160.8078 C.ar    1  UNL1        0.0213
      2 C         140.2623  143.0891  159.5512 C.ar    1  UNL1        0.1006
      3 N         140.6701  142.3917  158.2874 N.ar    1  UNL1       -0.2246
      4 C         140.8626  140.9041  158.2801 C.ar    1  UNL1        0.1702
      5 N         141.2587  139.9486  157.1938 N.ar    1  UNL1       -0.2052
      6 C         141.2882  138.5678  157.7791 C.ar    1  UNL1        0.1647
      7 S         140.9102  138.6700  159.2271 S.2     1  UNL1       -0.0499
      8 C         140.6472  140.1139  159.5368 C.ar    1  UNL1        0.0679
      9 C         140.2394  140.8113  160.8006 C.ar    1  UNL1        0.0112
     10 C         138.4158  145.0883  165.8634 C.3     1  UNL1        0.0521
     11 C         138.8235  144.3909  164.5995 C.ar    1  UNL1        0.0594
     12 C         137.7775  143.8551  163.6675 C.ar    1  UNL1        0.0147
     13 C         138.1853  143.1578  162.4036 C.ar    1  UNL1        0.0028
     14 C         139.6391  142.9962  162.0717 C.ar    1  UNL1        0.0207
     15 C         140.6852  143.5320  163.0037 C.ar    1  UNL1        0.0984
     16 N         140.2775  144.2294  164.2676 N.ar    1  UNL1       -0.2481
     17 N         141.6347  137.3063  157.0452 N.pl3   1  UNL1       -0.2880
     18 C         140.7141  136.7782  155.9852 C.3     1  UNL1        0.0940
     19 C         141.0606  135.5168  155.2513 C.3     1  UNL1        0.0375
     20 C         142.3277  134.7833  155.5775 C.3     1  UNL1        0.0609
     21 C         143.2484  135.3113  156.6376 C.3     1  UNL1        0.0375
     22 C         142.9019  136.5728  157.3714 C.3     1  UNL1        0.0940
     23 N         142.6743  133.5218  154.8437 N.3     1  UNL1       -0.2738
     24 C         142.1446  133.2896  153.4596 C.3     1  UNL1        0.0720
     25 C         142.4912  132.0282  152.7258 C.3     1  UNL1        0.0174
     26 C         143.3673  130.9988  153.3760 C.3     1  UNL1        0.0029
     27 C         143.8970  131.2310  154.7600 C.3     1  UNL1        0.0174
     28 C         143.5505  132.4924  155.4939 C.3     1  UNL1        0.0720
@<TRIPOS>BOND
     1    10    11    1
     2    11    12   ar
     3    12    13   ar
     4    13    14   ar
     5    14     1    1
     6     1     2   ar
     7     2     3   ar
     8     3     4   ar
     9     4     5   ar
    10     5     6   ar
    11     6    17    1
    12    17    18    1
    13    18    19    1
    14    19    20    1
    15    20    23    1
    16    23    24    1
    17    24    25    1
    18    25    26    1
    19    26    27    1
    20    27    28    1
    21    20    21    1
    22    21    22    1
    23     6     7   ar
    24     7     8   ar
    25     8     9   ar
    26    14    15   ar
    27    15    16   ar
    28    16    11   ar
    29     9     1   ar
    30     8     4   ar
    31    22    17    1
    32    28    23    1
@<TRIPOS>MOLECULE
*****
 28 32 0 0 0
SMALL
GASTEIGER

@<TRIPOS>ATOM
      1 C         140.7932  141.5571  162.6219 C.ar    1  UNL1        0.0213
      2 C         140.4284  142.9704  162.2761 C.ar    1  UNL1        0.1006
      3 N         141.1829  143.6987  161.2037 N.ar    1  UNL1       -0.2246
      4 C         142.3022  143.0138  160.4770 C.ar    1  UNL1        0.1702
      5 N         143.2185  143.4744  159.3823 N.ar    1  UNL1       -0.2052
      6 C         144.1495  142.3458  159.0515 C.ar    1  UNL1        0.1647
      7 S         143.8087  141.1877  159.9418 S.2     1  UNL1       -0.0499
      8 C         142.6670  141.6005  160.8228 C.ar    1  UNL1        0.0679
      9 C         141.9125  140.8722  161.8952 C.ar    1  UNL1        0.0112
     10 C         137.7750  138.6436  166.9117 C.3     1  UNL1        0.0521
     11 C         138.5295  139.3719  165.8393 C.ar    1  UNL1        0.0594
     12 C         138.5883  138.8098  164.4498 C.ar    1  UNL1        0.0147
     13 C         139.3428  139.5382  163.3773 C.ar    1  UNL1        0.0028
     14 C         140.0386  140.8287  163.6943 C.ar    1  UNL1        0.0207
     15 C         139.9799  141.3908  165.0838 C.ar    1  UNL1        0.0984
     16 N         139.2254  140.6625  166.1562 N.ar    1  UNL1       -0.2481
     17 N         145.2314  142.3709  158.0127 N.pl3   1  UNL1       -0.2880
     18 C         144.9632  141.8356  156.6374 C.3     1  UNL1        0.0940
     19 C         146.0450  141.8606  155.5987 C.3     1  UNL1        0.0375
     20 C         147.3951  142.4210  155.9353 C.3     1  UNL1        0.0609
     21 C         147.6633  142.9563  157.3107 C.3     1  UNL1        0.0375
     22 C         146.5814  142.9313  158.3494 C.3     1  UNL1        0.0940
     23 N         148.4770  142.4461  154.8966 N.3     1  UNL1       -0.2738
     24 C         149.7689  141.7243  155.1417 C.3     1  UNL1        0.0720
     25 C         150.8508  141.7493  154.1031 C.3     1  UNL1        0.0174
     26 C         150.6408  142.4961  152.8193 C.3     1  UNL1        0.0029
     27 C         149.3489  143.2179  152.5742 C.3     1  UNL1        0.0174
     28 C         148.2670  143.1929  153.6128 C.3     1  UNL1        0.0720
@<TRIPOS>BOND
     1    10    11    1
     2    11    12   ar
     3    12    13   ar
     4    13    14   ar
     5    14     1    1
     6     1     2   ar
     7     2     3   ar
     8     3     4   ar
     9     4     5   ar
    10     5     6   ar
    11     6    17    1
    12    17    18    1
    13    18    19    1
    14    19    20    1
    15    20    23    1
    16    23    24    1
    17    24    25    1
    18    25    26    1
    19    26    27    1
    20    27    28    1
    21    20    21    1
    22    21    22    1
    23     6     7   ar
    24     7     8   ar
    25     8     9   ar
    26    14    15   ar
    27    15    16   ar
    28    16    11   ar
    29     9     1   ar
    30     8     4   ar
    31    22    17    1
    32    28    23    1
