@<TRIPOS>MOLECULE
*****
 43 46 0 0 0
SMALL
GASTEIGER

@<TRIPOS>ATOM
      1 C         141.2724  143.7846  161.5874 C.3     1  UNL1        0.1132
      2 O         141.7683  142.6949  162.4911 O.3     1  UNL1       -0.3823
      3 C         140.9384  144.5290  160.3288 C.3     1  UNL1        0.0486
      4 C         140.3105  145.8891  160.4060 C.3     1  UNL1        0.0714
      5 N         140.0165  146.5047  161.7419 N.3     1  UNL1       -0.2970
      6 C         140.3505  145.7603  163.0006 C.3     1  UNL1        0.0756
      7 C         140.9785  144.4002  162.9233 C.3     1  UNL1        0.0663
      8 H         142.1105  141.9618  161.9560 H       1  UNL1        0.2107
      9 H         139.0138  146.6898  161.7666 H       1  UNL1        0.1233
     10 C         141.3124  143.6558  164.1820 C.ar    1  UNL1       -0.0225
     11 C         142.7323  143.5925  164.6617 C.ar    1  UNL1       -0.0045
     12 C         143.0662  142.8481  165.9204 C.ar    1  UNL1       -0.0004
     13 C         141.9804  142.1668  166.6994 C.ar    1  UNL1       -0.0006
     14 C         140.5605  142.2301  166.2196 C.ar    1  UNL1       -0.0046
     15 C         140.2265  142.9745  164.9610 C.ar    1  UNL1       -0.0257
     16 C         138.8068  143.0377  164.4813 C.3     1  UNL1        0.0307
     17 C         142.3143  141.4224  167.9581 C.ar    1  UNL1       -0.0039
     18 C         142.5908  142.1769  169.2247 C.ar    1  UNL1       -0.0003
     19 C         142.9246  141.4325  170.4834 C.ar    1  UNL1       -0.0000
     20 C         142.9821  139.9336  170.4755 C.ar    1  UNL1       -0.0003
     21 C         142.7056  139.1791  169.2089 C.ar    1  UNL1       -0.0042
     22 C         142.3717  139.9235  167.9502 C.ar    1  UNL1       -0.0205
     23 C         142.0952  139.1691  166.6835 C.3     1  UNL1        0.0476
     24 C         143.1962  138.4041  166.0108 C.3     1  UNL1        0.0941
     25 N         144.3094  139.1391  165.3247 N.am    1  UNL1       -0.3040
     26 C         144.0119  140.0255  164.1518 C.2     1  UNL1        0.2230
     27 C         145.1252  140.7605  163.4657 C.3     1  UNL1        0.0946
     28 O         142.6012  140.1771  163.6649 O.2     1  UNL1       -0.2751
     29 H         145.2353  139.0397  165.6442 H       1  UNL1        0.1494
     30 C         142.6709  140.8025  158.5213 C.ar    1  UNL1        0.0072
     31 C         141.2313  141.2222  158.5572 C.ar    1  UNL1       -0.0021
     32 C         140.7651  142.2162  159.5793 C.ar    1  UNL1       -0.0023
     33 C         141.7386  142.7906  160.5654 C.ar    1  UNL1        0.0021
     34 C         143.1782  142.3709  160.5295 C.ar    1  UNL1       -0.0023
     35 C         143.6444  141.3769  159.5074 C.ar    1  UNL1       -0.0021
     36 C         143.1371  139.8085  157.4992 C.3     1  UNL1        0.1686
     37 O         143.4473  138.3997  157.9102 O.3     1  UNL1       -0.3489
     38 C         142.5334  137.6750  158.8534 C.3     1  UNL1        0.1451
     39 C         142.5795  137.9762  160.3222 C.3     1  UNL1        0.0593
     40 C         143.8751  137.8660  161.0700 C.3     1  UNL1        0.0052
     41 C         141.3301  138.3875  161.0430 C.3     1  UNL1        0.1447
     42 C         140.9434  137.1947  163.3186 C.3     1  UNL1        0.1741
     43 O         140.5816  137.3894  161.8759 O.3     1  UNL1       -0.3510
@<TRIPOS>BOND
     1    42    43    1
     2    43    41    1
     3    41    39    1
     4    39    40    1
     5    39    38    1
     6    38    37    1
     7    37    36    1
     8    36    30    1
     9    30    31   ar
    10    31    32   ar
    11    32    33   ar
    12    33     1    1
    13     1     2    1
    14     1     3    1
    15     3     4    1
    16     4     5    1
    17     5     6    1
    18     6     7    1
    19     7    10    1
    20    10    11   ar
    21    11    12   ar
    22    12    13   ar
    23    13    17    1
    24    17    18   ar
    25    18    19   ar
    26    19    20   ar
    27    20    21   ar
    28    21    22   ar
    29    22    23    1
    30    23    24    1
    31    24    25    1
    32    25    26   am
    33    26    27    1
    34    26    28    2
    35    13    14   ar
    36    14    15   ar
    37    15    16    1
    38    33    34   ar
    39    34    35   ar
    40    35    30   ar
    41     7     1    1
    42    15    10   ar
    43    22    17   ar
    44     2     8    1
    45     5     9    1
    46    25    29    1
@<TRIPOS>MOLECULE
*****
 43 46 0 0 0
SMALL
GASTEIGER

@<TRIPOS>ATOM
      1 C         141.0125  143.7471  161.5284 C.3     1  UNL1        0.1132
      2 O         141.4491  142.6660  162.4720 O.3     1  UNL1       -0.3823
      3 C         140.7080  144.4579  160.2431 C.3     1  UNL1        0.0486
      4 C         140.1746  145.8597  160.2693 C.3     1  UNL1        0.0714
      5 N         139.9458  146.5506  161.5809 N.3     1  UNL1       -0.2970
      6 C         140.2503  145.8398  162.8662 C.3     1  UNL1        0.0756
      7 C         140.7836  144.4381  162.8399 C.3     1  UNL1        0.0663
      8 H         141.7318  141.8889  161.9648 H       1  UNL1        0.2107
      9 H         138.9584  146.8045  161.6116 H       1  UNL1        0.1233
     10 C         141.0881  143.7273  164.1252 C.ar    1  UNL1       -0.0225
     11 C         142.5117  143.4622  164.5168 C.ar    1  UNL1       -0.0045
     12 C         142.8161  142.7514  165.8021 C.ar    1  UNL1       -0.0004
     13 C         141.6971  142.3057  166.6960 C.ar    1  UNL1       -0.0006
     14 C         140.2735  142.5707  166.3044 C.ar    1  UNL1       -0.0046
     15 C         139.9690  143.2815  165.0191 C.ar    1  UNL1       -0.0257
     16 C         138.5455  143.5465  164.6277 C.3     1  UNL1        0.0307
     17 C         142.0015  141.5949  167.9813 C.ar    1  UNL1       -0.0039
     18 C         141.9948  142.3515  169.2765 C.ar    1  UNL1       -0.0003
     19 C         142.2992  141.6408  170.5618 C.ar    1  UNL1       -0.0000
     20 C         142.6103  140.1735  170.5521 C.ar    1  UNL1       -0.0003
     21 C         142.6171  139.4168  169.2569 C.ar    1  UNL1       -0.0042
     22 C         142.3127  140.1276  167.9716 C.ar    1  UNL1       -0.0205
     23 C         142.3194  139.3710  166.6763 C.3     1  UNL1        0.0476
     24 C         141.0237  138.9845  166.0268 C.3     1  UNL1        0.0941
     25 N         140.7032  139.4708  164.6445 N.am    1  UNL1       -0.3040
     26 C         139.2806  139.7472  164.2577 C.2     1  UNL1        0.2230
     27 C         138.9602  140.2336  162.8753 C.3     1  UNL1        0.0946
     28 O         138.1783  139.5373  165.2532 O.2     1  UNL1       -0.2751
     29 H         141.4267  139.6086  163.9911 H       1  UNL1        0.1494
     30 C         142.1539  140.5479  158.5768 C.ar    1  UNL1        0.0072
     31 C         143.2185  141.2774  159.3412 C.ar    1  UNL1       -0.0021
     32 C         142.8380  142.3438  160.3251 C.ar    1  UNL1       -0.0023
     33 C         141.3929  142.6807  160.5445 C.ar    1  UNL1        0.0021
     34 C         140.3284  141.9512  159.7801 C.ar    1  UNL1       -0.0023
     35 C         140.7088  140.8848  158.7962 C.ar    1  UNL1       -0.0021
     36 C         142.5344  139.4815  157.5929 C.3     1  UNL1        0.1686
     37 O         143.3163  138.2852  158.0484 O.3     1  UNL1       -0.3489
     38 C         142.7483  137.3716  159.0938 C.3     1  UNL1        0.1451
     39 C         142.7161  137.8036  160.5300 C.3     1  UNL1        0.0593
     40 C         141.4022  138.0602  161.2066 C.3     1  UNL1        0.0052
     41 C         143.9977  137.9788  161.2894 C.3     1  UNL1        0.1447
     42 C         144.1745  139.9986  162.9139 C.3     1  UNL1        0.1741
     43 O         143.9736  138.5300  162.6843 O.3     1  UNL1       -0.3510
@<TRIPOS>BOND
     1    42    43    1
     2    43    41    1
     3    41    39    1
     4    39    40    1
     5    39    38    1
     6    38    37    1
     7    37    36    1
     8    36    30    1
     9    30    31   ar
    10    31    32   ar
    11    32    33   ar
    12    33     1    1
    13     1     2    1
    14     1     3    1
    15     3     4    1
    16     4     5    1
    17     5     6    1
    18     6     7    1
    19     7    10    1
    20    10    11   ar
    21    11    12   ar
    22    12    13   ar
    23    13    17    1
    24    17    18   ar
    25    18    19   ar
    26    19    20   ar
    27    20    21   ar
    28    21    22   ar
    29    22    23    1
    30    23    24    1
    31    24    25    1
    32    25    26   am
    33    26    27    1
    34    26    28    2
    35    13    14   ar
    36    14    15   ar
    37    15    16    1
    38    33    34   ar
    39    34    35   ar
    40    35    30   ar
    41     7     1    1
    42    15    10   ar
    43    22    17   ar
    44     2     8    1
    45     5     9    1
    46    25    29    1
@<TRIPOS>MOLECULE
*****
 43 46 0 0 0
SMALL
GASTEIGER

@<TRIPOS>ATOM
      1 C         141.2536  143.3456  161.4097 C.3     1  UNL1        0.1132
      2 O         141.6398  142.2877  162.4004 O.3     1  UNL1       -0.3823
      3 C         140.9713  144.0094  160.0945 C.3     1  UNL1        0.0486
      4 C         140.5240  145.4407  160.0575 C.3     1  UNL1        0.0714
      5 N         140.3591  146.2082  161.3356 N.3     1  UNL1       -0.2970
      6 C         140.6414  145.5444  162.6508 C.3     1  UNL1        0.0756
      7 C         141.0886  144.1131  162.6878 C.3     1  UNL1        0.0663
      8 H         141.8667  141.4707  161.9292 H       1  UNL1        0.2107
      9 H         139.3894  146.5231  161.3668 H       1  UNL1        0.1233
     10 C         141.3710  143.4494  164.0030 C.ar    1  UNL1       -0.0225
     11 C         142.7855  143.3002  164.4796 C.ar    1  UNL1       -0.0045
     12 C         143.0677  142.6365  165.7948 C.ar    1  UNL1       -0.0004
     13 C         141.9356  142.1218  166.6334 C.ar    1  UNL1       -0.0006
     14 C         140.5211  142.2710  166.1568 C.ar    1  UNL1       -0.0046
     15 C         140.2388  142.9347  164.8416 C.ar    1  UNL1       -0.0257
     16 C         138.8243  143.0838  164.3651 C.3     1  UNL1        0.0307
     17 C         142.2178  141.4581  167.9486 C.ar    1  UNL1       -0.0039
     18 C         142.3169  142.2818  169.1983 C.ar    1  UNL1       -0.0003
     19 C         142.5991  141.6180  170.5135 C.ar    1  UNL1       -0.0000
     20 C         142.7822  140.1307  170.5791 C.ar    1  UNL1       -0.0003
     21 C         142.6830  139.3070  169.3294 C.ar    1  UNL1       -0.0042
     22 C         142.4008  139.9708  168.0142 C.ar    1  UNL1       -0.0205
     23 C         142.3017  139.1471  166.7644 C.3     1  UNL1        0.0476
     24 C         143.5449  138.6092  166.1202 C.3     1  UNL1        0.0941
     25 N         144.1272  139.2985  164.9220 N.am    1  UNL1       -0.3040
     26 C         143.5603  139.0384  163.5579 C.2     1  UNL1        0.2230
     27 C         144.1427  139.7278  162.3597 C.3     1  UNL1        0.0946
     28 O         142.4110  138.0889  163.3918 O.2     1  UNL1       -0.2751
     29 H         144.8816  139.9217  165.0309 H       1  UNL1        0.1494
     30 C         142.1509  139.9408  158.6074 C.ar    1  UNL1        0.0072
     31 C         142.9958  141.1798  158.5770 C.ar    1  UNL1       -0.0021
     32 C         142.6967  142.3147  159.5111 C.ar    1  UNL1       -0.0023
     33 C         141.5527  142.2107  160.4756 C.ar    1  UNL1        0.0021
     34 C         140.7077  140.9717  160.5060 C.ar    1  UNL1       -0.0023
     35 C         141.0068  139.8368  159.5719 C.ar    1  UNL1       -0.0021
     36 C         142.4499  138.8059  157.6734 C.3     1  UNL1        0.1686
     37 O         141.5079  137.6424  157.5811 O.3     1  UNL1       -0.3489
     38 C         141.6887  136.6145  156.5036 C.3     1  UNL1        0.1451
     39 C         143.0031  135.9072  156.3548 C.3     1  UNL1        0.0593
     40 C         143.3248  134.7308  157.2280 C.3     1  UNL1        0.0052
     41 C         143.9958  136.3764  155.3329 C.3     1  UNL1        0.1447
     42 C         144.9234  138.7621  154.8878 C.3     1  UNL1        0.1741
     43 O         144.9525  137.4818  155.6689 O.3     1  UNL1       -0.3510
@<TRIPOS>BOND
     1    42    43    1
     2    43    41    1
     3    41    39    1
     4    39    40    1
     5    39    38    1
     6    38    37    1
     7    37    36    1
     8    36    30    1
     9    30    31   ar
    10    31    32   ar
    11    32    33   ar
    12    33     1    1
    13     1     2    1
    14     1     3    1
    15     3     4    1
    16     4     5    1
    17     5     6    1
    18     6     7    1
    19     7    10    1
    20    10    11   ar
    21    11    12   ar
    22    12    13   ar
    23    13    17    1
    24    17    18   ar
    25    18    19   ar
    26    19    20   ar
    27    20    21   ar
    28    21    22   ar
    29    22    23    1
    30    23    24    1
    31    24    25    1
    32    25    26   am
    33    26    27    1
    34    26    28    2
    35    13    14   ar
    36    14    15   ar
    37    15    16    1
    38    33    34   ar
    39    34    35   ar
    40    35    30   ar
    41     7     1    1
    42    15    10   ar
    43    22    17   ar
    44     2     8    1
    45     5     9    1
    46    25    29    1
@<TRIPOS>MOLECULE
*****
 43 46 0 0 0
SMALL
GASTEIGER

@<TRIPOS>ATOM
      1 C         141.3953  143.3403  161.1649 C.3     1  UNL1        0.1132
      2 O         141.8217  142.2984  162.1562 O.3     1  UNL1       -0.3823
      3 C         141.0960  143.9950  159.8489 C.3     1  UNL1        0.0486
      4 C         140.5790  145.4026  159.8120 C.3     1  UNL1        0.0714
      5 N         140.3613  146.1554  161.0910 N.3     1  UNL1       -0.2970
      6 C         140.6606  145.5007  162.4069 C.3     1  UNL1        0.0756
      7 C         141.1776  144.0931  162.4438 C.3     1  UNL1        0.0663
      8 H         142.0942  141.4957  161.6846 H       1  UNL1        0.2107
      9 H         139.3769  146.4220  161.1119 H       1  UNL1        0.1233
     10 C         141.4770  143.4383  163.7598 C.ar    1  UNL1       -0.0225
     11 C         140.4072  142.6666  164.4741 C.ar    1  UNL1       -0.0045
     12 C         140.7066  142.0119  165.7900 C.ar    1  UNL1       -0.0004
     13 C         142.0756  142.1288  166.3918 C.ar    1  UNL1       -0.0006
     14 C         143.1454  142.9006  165.6774 C.ar    1  UNL1       -0.0046
     15 C         142.8460  143.5553  164.3615 C.ar    1  UNL1       -0.0257
     16 C         143.9157  144.3271  163.6472 C.3     1  UNL1        0.0307
     17 C         142.3750  141.4741  167.7077 C.ar    1  UNL1       -0.0039
     18 C         142.6820  142.3153  168.9111 C.ar    1  UNL1       -0.0003
     19 C         142.9814  141.6606  170.2271 C.ar    1  UNL1       -0.0000
     20 C         142.9739  140.1649  170.3396 C.ar    1  UNL1       -0.0003
     21 C         142.6669  139.3237  169.1362 C.ar    1  UNL1       -0.0042
     22 C         142.3675  139.9784  167.8203 C.ar    1  UNL1       -0.0205
     23 C         142.0605  139.1373  166.6167 C.3     1  UNL1        0.0476
     24 C         143.1679  138.4279  165.8954 C.3     1  UNL1        0.0941
     25 N         144.1825  139.2147  165.1197 N.am    1  UNL1       -0.3040
     26 C         143.7998  139.8554  163.8185 C.2     1  UNL1        0.2230
     27 C         144.8145  140.6421  163.0429 C.3     1  UNL1        0.0946
     28 O         142.4025  139.7094  163.2930 O.2     1  UNL1       -0.2751
     29 H         145.0996  139.3105  165.4646 H       1  UNL1        0.1494
     30 C         142.4926  139.9962  158.3607 C.ar    1  UNL1        0.0072
     31 C         141.1089  140.0699  158.9350 C.ar    1  UNL1       -0.0021
     32 C         140.7431  141.1845  159.8697 C.ar    1  UNL1       -0.0023
     33 C         141.7611  142.2256  160.2302 C.ar    1  UNL1        0.0021
     34 C         143.1448  142.1519  159.6559 C.ar    1  UNL1       -0.0023
     35 C         143.5105  141.0373  158.7211 C.ar    1  UNL1       -0.0021
     36 C         142.8584  138.8815  157.4260 C.3     1  UNL1        0.1686
     37 O         142.3857  137.4852  157.7027 O.3     1  UNL1       -0.3489
     38 C         141.7398  136.6822  156.6127 C.3     1  UNL1        0.1451
     39 C         142.2747  135.3250  156.2634 C.3     1  UNL1        0.0593
     40 C         141.5652  134.4774  155.2494 C.3     1  UNL1        0.0052
     41 C         143.5190  134.8154  156.9282 C.3     1  UNL1        0.1447
     42 C         144.7617  132.7348  157.8647 C.3     1  UNL1        0.1741
     43 O         143.4933  133.5112  157.6689 O.3     1  UNL1       -0.3510
@<TRIPOS>BOND
     1    42    43    1
     2    43    41    1
     3    41    39    1
     4    39    40    1
     5    39    38    1
     6    38    37    1
     7    37    36    1
     8    36    30    1
     9    30    31   ar
    10    31    32   ar
    11    32    33   ar
    12    33     1    1
    13     1     2    1
    14     1     3    1
    15     3     4    1
    16     4     5    1
    17     5     6    1
    18     6     7    1
    19     7    10    1
    20    10    11   ar
    21    11    12   ar
    22    12    13   ar
    23    13    17    1
    24    17    18   ar
    25    18    19   ar
    26    19    20   ar
    27    20    21   ar
    28    21    22   ar
    29    22    23    1
    30    23    24    1
    31    24    25    1
    32    25    26   am
    33    26    27    1
    34    26    28    2
    35    13    14   ar
    36    14    15   ar
    37    15    16    1
    38    33    34   ar
    39    34    35   ar
    40    35    30   ar
    41     7     1    1
    42    15    10   ar
    43    22    17   ar
    44     2     8    1
    45     5     9    1
    46    25    29    1
@<TRIPOS>MOLECULE
*****
 43 46 0 0 0
SMALL
GASTEIGER

@<TRIPOS>ATOM
      1 C         140.3154  143.2829  160.8387 C.3     1  UNL1        0.1132
      2 O         140.2927  142.3140  161.9836 O.3     1  UNL1       -0.3823
      3 C         140.3249  143.8019  159.4314 C.3     1  UNL1        0.0486
      4 C         140.3645  145.2798  159.1773 C.3     1  UNL1        0.0714
      5 N         140.3946  146.2385  160.3305 N.3     1  UNL1       -0.2970
      6 C         140.3851  145.7195  161.7378 C.3     1  UNL1        0.0756
      7 C         140.3455  144.2417  161.9919 C.3     1  UNL1        0.0663
      8 H         140.2667  141.4075  161.6395 H       1  UNL1        0.2107
      9 H         139.5777  146.8415  160.2335 H       1  UNL1        0.1233
     10 C         140.3360  143.7226  163.3992 C.ar    1  UNL1       -0.0225
     11 C         141.6190  143.2999  164.0515 C.ar    1  UNL1       -0.0045
     12 C         141.6094  142.7809  165.4588 C.ar    1  UNL1       -0.0004
     13 C         140.3170  142.6846  166.2139 C.ar    1  UNL1       -0.0006
     14 C         139.0340  143.1073  165.5616 C.ar    1  UNL1       -0.0046
     15 C         139.0435  143.6263  164.1543 C.ar    1  UNL1       -0.0257
     16 C         137.7605  144.0490  163.5022 C.3     1  UNL1        0.0307
     17 C         140.3074  142.1656  167.6212 C.ar    1  UNL1       -0.0039
     18 C         140.4237  143.1194  168.7731 C.ar    1  UNL1       -0.0003
     19 C         140.4140  142.6004  170.1804 C.ar    1  UNL1       -0.0000
     20 C         140.2882  141.1278  170.4359 C.ar    1  UNL1       -0.0003
     21 C         140.1719  140.1739  169.2840 C.ar    1  UNL1       -0.0042
     22 C         140.1815  140.6929  167.8767 C.ar    1  UNL1       -0.0205
     23 C         140.0652  139.7391  166.7248 C.3     1  UNL1        0.0476
     24 C         138.7137  139.3795  166.1824 C.3     1  UNL1        0.0941
     25 N         138.5950  138.3962  165.0559 N.am    1  UNL1       -0.3040
     26 C         138.7318  138.8618  163.6365 C.2     1  UNL1        0.2230
     27 C         138.6130  137.8784  162.5100 C.3     1  UNL1        0.0946
     28 O         138.9872  140.3105  163.3436 O.2     1  UNL1       -0.2751
     29 H         138.4273  137.4453  165.2480 H       1  UNL1        0.1494
     30 C         140.2014  139.3972  158.5719 C.ar    1  UNL1        0.0072
     31 C         138.9483  139.9413  159.1911 C.ar    1  UNL1       -0.0021
     32 C         138.9863  141.2366  159.9467 C.ar    1  UNL1       -0.0023
     33 C         140.2774  141.9877  160.0831 C.ar    1  UNL1        0.0021
     34 C         141.5306  141.4436  159.4639 C.ar    1  UNL1       -0.0023
     35 C         141.4926  140.1483  158.7084 C.ar    1  UNL1       -0.0021
     36 C         140.1635  138.1020  157.8163 C.3     1  UNL1        0.1686
     37 O         141.4356  137.3559  157.5424 O.3     1  UNL1       -0.3489
     38 C         141.7032  136.8075  156.1722 C.3     1  UNL1        0.1451
     39 C         142.0062  135.3492  155.9940 C.3     1  UNL1        0.0593
     40 C         141.2265  134.5368  155.0031 C.3     1  UNL1        0.0052
     41 C         143.0889  134.7034  156.8068 C.3     1  UNL1        0.1447
     42 C         143.3570  132.1196  156.8561 C.3     1  UNL1        0.1741
     43 O         142.8392  133.3839  157.4752 O.3     1  UNL1       -0.3510
@<TRIPOS>BOND
     1    42    43    1
     2    43    41    1
     3    41    39    1
     4    39    40    1
     5    39    38    1
     6    38    37    1
     7    37    36    1
     8    36    30    1
     9    30    31   ar
    10    31    32   ar
    11    32    33   ar
    12    33     1    1
    13     1     2    1
    14     1     3    1
    15     3     4    1
    16     4     5    1
    17     5     6    1
    18     6     7    1
    19     7    10    1
    20    10    11   ar
    21    11    12   ar
    22    12    13   ar
    23    13    17    1
    24    17    18   ar
    25    18    19   ar
    26    19    20   ar
    27    20    21   ar
    28    21    22   ar
    29    22    23    1
    30    23    24    1
    31    24    25    1
    32    25    26   am
    33    26    27    1
    34    26    28    2
    35    13    14   ar
    36    14    15   ar
    37    15    16    1
    38    33    34   ar
    39    34    35   ar
    40    35    30   ar
    41     7     1    1
    42    15    10   ar
    43    22    17   ar
    44     2     8    1
    45     5     9    1
    46    25    29    1
@<TRIPOS>MOLECULE
*****
 43 46 0 0 0
SMALL
GASTEIGER

@<TRIPOS>ATOM
      1 C         141.3199  143.3936  161.1310 C.3     1  UNL1        0.1132
      2 O         141.7590  142.3463  162.1109 O.3     1  UNL1       -0.3823
      3 C         141.0003  144.0544  159.8229 C.3     1  UNL1        0.0486
      4 C         140.4890  145.4645  159.8000 C.3     1  UNL1        0.0714
      5 N         140.2973  146.2136  161.0853 N.3     1  UNL1       -0.2970
      6 C         140.6168  145.5528  162.3934 C.3     1  UNL1        0.0756
      7 C         141.1282  144.1428  162.4162 C.3     1  UNL1        0.0663
      8 H         142.0196  141.5442  161.6317 H       1  UNL1        0.2107
      9 H         139.3147  146.4844  161.1245 H       1  UNL1        0.1233
     10 C         141.4477  143.4820  163.7244 C.ar    1  UNL1       -0.0225
     11 C         140.3854  142.7183  164.4582 C.ar    1  UNL1       -0.0045
     12 C         140.7051  142.0575  165.7663 C.ar    1  UNL1       -0.0004
     13 C         142.0869  142.1604  166.3407 C.ar    1  UNL1       -0.0006
     14 C         143.1492  142.9241  165.6069 C.ar    1  UNL1       -0.0046
     15 C         142.8296  143.5849  164.2988 C.ar    1  UNL1       -0.0257
     16 C         143.8918  144.3486  163.5650 C.3     1  UNL1        0.0307
     17 C         142.4065  141.4996  167.6488 C.ar    1  UNL1       -0.0039
     18 C         142.7801  142.3333  168.8386 C.ar    1  UNL1       -0.0003
     19 C         143.0997  141.6726  170.1467 C.ar    1  UNL1       -0.0000
     20 C         143.0459  140.1783  170.2652 C.ar    1  UNL1       -0.0003
     21 C         142.6723  139.3446  169.0754 C.ar    1  UNL1       -0.0042
     22 C         142.3527  140.0053  167.7673 C.ar    1  UNL1       -0.0205
     23 C         141.9791  139.1717  166.5775 C.3     1  UNL1        0.0476
     24 C         143.0393  138.4293  165.8193 C.3     1  UNL1        0.0941
     25 N         144.1376  139.1848  165.1315 N.am    1  UNL1       -0.3040
     26 C         143.8554  139.9237  163.8570 C.2     1  UNL1        0.2230
     27 C         144.9538  140.6792  163.1692 C.3     1  UNL1        0.0946
     28 O         142.4751  139.9071  163.2702 O.2     1  UNL1       -0.2751
     29 H         145.0436  139.1958  165.5166 H       1  UNL1        0.1494
     30 C         142.3526  140.0550  158.2961 C.ar    1  UNL1        0.0072
     31 C         143.4137  140.6478  159.1750 C.ar    1  UNL1       -0.0021
     32 C         143.0695  141.7607  160.1200 C.ar    1  UNL1       -0.0023
     33 C         141.6641  142.2808  160.1860 C.ar    1  UNL1        0.0021
     34 C         140.6030  141.6880  159.3071 C.ar    1  UNL1       -0.0023
     35 C         140.9473  140.5751  158.3621 C.ar    1  UNL1       -0.0021
     36 C         142.6969  138.9421  157.3511 C.3     1  UNL1        0.1686
     37 O         144.0813  138.8422  156.7826 O.3     1  UNL1       -0.3489
     38 C         144.4316  139.5834  155.5265 C.3     1  UNL1        0.1451
     39 C         144.8083  141.0340  155.5919 C.3     1  UNL1        0.0593
     40 C         145.9347  141.4771  156.4778 C.3     1  UNL1        0.0052
     41 C         144.0586  142.0412  154.7713 C.3     1  UNL1        0.1447
     42 C         142.7836  143.3710  156.6033 C.3     1  UNL1        0.1741
     43 O         143.6510  143.3504  155.3798 O.3     1  UNL1       -0.3510
@<TRIPOS>BOND
     1    42    43    1
     2    43    41    1
     3    41    39    1
     4    39    40    1
     5    39    38    1
     6    38    37    1
     7    37    36    1
     8    36    30    1
     9    30    31   ar
    10    31    32   ar
    11    32    33   ar
    12    33     1    1
    13     1     2    1
    14     1     3    1
    15     3     4    1
    16     4     5    1
    17     5     6    1
    18     6     7    1
    19     7    10    1
    20    10    11   ar
    21    11    12   ar
    22    12    13   ar
    23    13    17    1
    24    17    18   ar
    25    18    19   ar
    26    19    20   ar
    27    20    21   ar
    28    21    22   ar
    29    22    23    1
    30    23    24    1
    31    24    25    1
    32    25    26   am
    33    26    27    1
    34    26    28    2
    35    13    14   ar
    36    14    15   ar
    37    15    16    1
    38    33    34   ar
    39    34    35   ar
    40    35    30   ar
    41     7     1    1
    42    15    10   ar
    43    22    17   ar
    44     2     8    1
    45     5     9    1
    46    25    29    1
@<TRIPOS>MOLECULE
*****
 43 46 0 0 0
SMALL
GASTEIGER

@<TRIPOS>ATOM
      1 C         139.4767  141.9552  163.7462 C.3     1  UNL1        0.1132
      2 O         140.1987  140.8409  163.0483 O.3     1  UNL1       -0.3823
      3 C         139.0309  142.8775  164.8420 C.3     1  UNL1        0.0486
      4 C         138.0407  143.9657  164.5499 C.3     1  UNL1        0.0714
      5 N         137.4962  144.1316  163.1621 N.3     1  UNL1       -0.2970
      6 C         137.9420  143.2093  162.0663 C.3     1  UNL1        0.0756
      7 C         138.9323  142.1211  162.3585 C.3     1  UNL1        0.0663
      8 H         140.7690  140.3783  163.6821 H       1  UNL1        0.2107
      9 H         137.7322  145.0782  162.8644 H       1  UNL1        0.1233
     10 C         139.3780  141.1988  161.2627 C.ar    1  UNL1       -0.0225
     11 C         140.5253  141.5856  160.3770 C.ar    1  UNL1       -0.0045
     12 C         140.9709  140.6632  159.2813 C.ar    1  UNL1       -0.0004
     13 C         140.2696  139.3541  159.0712 C.ar    1  UNL1       -0.0006
     14 C         139.1223  138.9673  159.9569 C.ar    1  UNL1       -0.0046
     15 C         138.6765  139.8896  161.0526 C.ar    1  UNL1       -0.0257
     16 C         137.5294  139.5028  161.9382 C.3     1  UNL1        0.0307
     17 C         140.7152  138.4318  157.9755 C.ar    1  UNL1       -0.0039
     18 C         139.7873  138.1111  156.8414 C.ar    1  UNL1       -0.0003
     19 C         140.2330  137.1887  155.7457 C.ar    1  UNL1       -0.0000
     20 C         141.6064  136.5871  155.7840 C.ar    1  UNL1       -0.0003
     21 C         142.5344  136.9077  156.9181 C.ar    1  UNL1       -0.0042
     22 C         142.0887  137.8301  158.0138 C.ar    1  UNL1       -0.0205
     23 C         143.0166  138.1508  159.1480 C.3     1  UNL1        0.0476
     24 C         142.9718  137.3363  160.4067 C.3     1  UNL1        0.0941
     25 N         143.6073  137.8587  161.6611 N.am    1  UNL1       -0.3040
     26 C         142.7489  138.2967  162.8105 C.2     1  UNL1        0.2230
     27 C         143.3845  138.8191  164.0648 C.3     1  UNL1        0.0946
     28 O         141.2549  138.2123  162.7057 O.2     1  UNL1       -0.2751
     29 H         144.5878  137.9141  161.7299 H       1  UNL1        0.1494
     30 C         141.8623  140.2967  167.1826 C.ar    1  UNL1        0.0072
     31 C         140.7512  139.4880  166.5814 C.ar    1  UNL1       -0.0021
     32 C         139.9561  140.0408  165.4359 C.ar    1  UNL1       -0.0023
     33 C         140.2719  141.4024  164.8917 C.ar    1  UNL1        0.0021
     34 C         141.3829  142.2111  165.4929 C.ar    1  UNL1       -0.0023
     35 C         142.1781  141.6583  166.6383 C.ar    1  UNL1       -0.0021
     36 C         142.6575  139.7439  168.3280 C.3     1  UNL1        0.1686
     37 O         142.2872  140.0975  169.7379 O.3     1  UNL1       -0.3489
     38 C         140.9250  139.7549  170.2640 C.3     1  UNL1        0.1451
     39 C         139.7946  140.7288  170.1096 C.3     1  UNL1        0.0593
     40 C         138.3763  140.2409  170.1293 C.3     1  UNL1        0.0052
     41 C         140.0825  142.1905  169.9355 C.3     1  UNL1        0.1447
     42 C         142.3428  143.4029  170.3493 C.3     1  UNL1        0.1741
     43 O         141.0337  142.8836  170.8656 O.3     1  UNL1       -0.3510
@<TRIPOS>BOND
     1    42    43    1
     2    43    41    1
     3    41    39    1
     4    39    40    1
     5    39    38    1
     6    38    37    1
     7    37    36    1
     8    36    30    1
     9    30    31   ar
    10    31    32   ar
    11    32    33   ar
    12    33     1    1
    13     1     2    1
    14     1     3    1
    15     3     4    1
    16     4     5    1
    17     5     6    1
    18     6     7    1
    19     7    10    1
    20    10    11   ar
    21    11    12   ar
    22    12    13   ar
    23    13    17    1
    24    17    18   ar
    25    18    19   ar
    26    19    20   ar
    27    20    21   ar
    28    21    22   ar
    29    22    23    1
    30    23    24    1
    31    24    25    1
    32    25    26   am
    33    26    27    1
    34    26    28    2
    35    13    14   ar
    36    14    15   ar
    37    15    16    1
    38    33    34   ar
    39    34    35   ar
    40    35    30   ar
    41     7     1    1
    42    15    10   ar
    43    22    17   ar
    44     2     8    1
    45     5     9    1
    46    25    29    1
@<TRIPOS>MOLECULE
*****
 43 46 0 0 0
SMALL
GASTEIGER

@<TRIPOS>ATOM
      1 C         142.3700  142.0736  160.8501 C.3     1  UNL1        0.1132
      2 O         141.3244  141.8161  161.8944 O.3     1  UNL1       -0.3823
      3 C         143.0050  142.2327  159.5005 C.3     1  UNL1        0.0486
      4 C         144.4589  142.5858  159.3927 C.3     1  UNL1        0.0714
      5 N         145.2777  142.7797  160.6344 N.3     1  UNL1       -0.2970
      6 C         144.6427  142.6207  161.9840 C.3     1  UNL1        0.0756
      7 C         143.1888  142.2676  162.0918 C.3     1  UNL1        0.0663
      8 H         140.4797  141.6129  161.4630 H       1  UNL1        0.2107
      9 H         145.6522  143.7277  160.5950 H       1  UNL1        0.1233
     10 C         142.5537  142.1085  163.4414 C.ar    1  UNL1       -0.0225
     11 C         141.6711  143.1916  163.9875 C.ar    1  UNL1       -0.0045
     12 C         141.0362  143.0324  165.3371 C.ar    1  UNL1       -0.0004
     13 C         141.2837  141.7903  166.1407 C.ar    1  UNL1       -0.0006
     14 C         142.1663  140.7073  165.5946 C.ar    1  UNL1       -0.0046
     15 C         142.8013  140.8663  164.2450 C.ar    1  UNL1       -0.0257
     16 C         143.6838  139.7833  163.6991 C.3     1  UNL1        0.0307
     17 C         140.6487  141.6312  167.4903 C.ar    1  UNL1       -0.0039
     18 C         140.8837  142.6606  168.5558 C.ar    1  UNL1       -0.0003
     19 C         140.2487  142.5014  169.9053 C.ar    1  UNL1       -0.0000
     20 C         139.3788  141.3130  170.1896 C.ar    1  UNL1       -0.0003
     21 C         139.1438  140.2836  169.1241 C.ar    1  UNL1       -0.0042
     22 C         139.7788  140.4427  167.7745 C.ar    1  UNL1       -0.0205
     23 C         139.5438  139.4133  166.7090 C.3     1  UNL1        0.0476
     24 C         138.2327  139.3728  165.9815 C.3     1  UNL1        0.0941
     25 N         137.8093  140.5354  165.1333 N.am    1  UNL1       -0.3040
     26 C         138.4929  140.7968  163.8241 C.2     1  UNL1        0.2230
     27 C         138.0695  141.9594  162.9759 C.3     1  UNL1        0.0946
     28 O         139.5999  139.8958  163.3628 O.2     1  UNL1       -0.2751
     29 H         137.0828  141.1268  165.4360 H       1  UNL1        0.1494
     30 C         138.8242  141.2235  158.2129 C.ar    1  UNL1        0.0072
     31 C         139.3145  142.6312  158.3796 C.ar    1  UNL1       -0.0021
     32 C         140.4965  142.9146  159.2587 C.ar    1  UNL1       -0.0023
     33 C         141.1880  141.7903  159.9711 C.ar    1  UNL1        0.0021
     34 C         140.6977  140.3825  159.8044 C.ar    1  UNL1       -0.0023
     35 C         139.5158  140.0991  158.9253 C.ar    1  UNL1       -0.0021
     36 C         137.6423  140.9401  157.3339 C.3     1  UNL1        0.1686
     37 O         137.3338  141.8441  156.1774 O.3     1  UNL1       -0.3489
     38 C         135.9799  141.8022  155.5330 C.3     1  UNL1        0.1451
     39 C         135.2341  140.5042  155.4385 C.3     1  UNL1        0.0593
     40 C         135.6033  139.5020  154.3853 C.3     1  UNL1        0.0052
     41 C         134.1191  140.2083  156.3973 C.3     1  UNL1        0.1447
     42 C         132.2970  138.4024  156.8076 C.3     1  UNL1        0.1741
     43 O         133.7423  138.7870  156.6939 O.3     1  UNL1       -0.3510
@<TRIPOS>BOND
     1    42    43    1
     2    43    41    1
     3    41    39    1
     4    39    40    1
     5    39    38    1
     6    38    37    1
     7    37    36    1
     8    36    30    1
     9    30    31   ar
    10    31    32   ar
    11    32    33   ar
    12    33     1    1
    13     1     2    1
    14     1     3    1
    15     3     4    1
    16     4     5    1
    17     5     6    1
    18     6     7    1
    19     7    10    1
    20    10    11   ar
    21    11    12   ar
    22    12    13   ar
    23    13    17    1
    24    17    18   ar
    25    18    19   ar
    26    19    20   ar
    27    20    21   ar
    28    21    22   ar
    29    22    23    1
    30    23    24    1
    31    24    25    1
    32    25    26   am
    33    26    27    1
    34    26    28    2
    35    13    14   ar
    36    14    15   ar
    37    15    16    1
    38    33    34   ar
    39    34    35   ar
    40    35    30   ar
    41     7     1    1
    42    15    10   ar
    43    22    17   ar
    44     2     8    1
    45     5     9    1
    46    25    29    1
@<TRIPOS>MOLECULE
*****
 43 46 0 0 0
SMALL
GASTEIGER

@<TRIPOS>ATOM
      1 C         140.6969  143.1705  161.1257 C.3     1  UNL1        0.1132
      2 O         141.0249  142.1256  162.1507 O.3     1  UNL1       -0.3823
      3 C         140.3309  143.7862  159.8077 C.3     1  UNL1        0.0486
      4 C         140.1881  145.2747  159.6891 C.3     1  UNL1        0.0714
      5 N         140.4112  146.1474  160.8885 N.3     1  UNL1       -0.2970
      6 C         140.7772  145.5317  162.2064 C.3     1  UNL1        0.0756
      7 C         140.9200  144.0432  162.3250 C.3     1  UNL1        0.0663
      8 H         140.9927  141.2478  161.7393 H       1  UNL1        0.2107
      9 H         139.5479  146.6699  161.0371 H       1  UNL1        0.1233
     10 C         141.2859  143.4275  163.6429 C.ar    1  UNL1       -0.0225
     11 C         140.2145  142.8777  164.5373 C.ar    1  UNL1       -0.0045
     12 C         140.5805  142.2621  165.8552 C.ar    1  UNL1       -0.0004
     13 C         142.0179  142.1961  166.2789 C.ar    1  UNL1       -0.0006
     14 C         143.0893  142.7459  165.3845 C.ar    1  UNL1       -0.0046
     15 C         142.7234  143.3616  164.0666 C.ar    1  UNL1       -0.0257
     16 C         143.7948  143.9113  163.1723 C.3     1  UNL1        0.0307
     17 C         142.3839  141.5804  167.5968 C.ar    1  UNL1       -0.0039
     18 C         142.8438  142.4504  168.7290 C.ar    1  UNL1       -0.0003
     19 C         143.2098  141.8347  170.0469 C.ar    1  UNL1       -0.0000
     20 C         143.1160  140.3493  170.2328 C.ar    1  UNL1       -0.0003
     21 C         142.6561  139.4793  169.1006 C.ar    1  UNL1       -0.0042
     22 C         142.2901  140.0950  167.7827 C.ar    1  UNL1       -0.0205
     23 C         141.8302  139.2251  166.6504 C.3     1  UNL1        0.0476
     24 C         142.8248  138.4072  165.8813 C.3     1  UNL1        0.0941
     25 N         143.8206  139.0840  164.9866 N.am    1  UNL1       -0.3040
     26 C         143.3914  139.6091  163.6488 C.2     1  UNL1        0.2230
     27 C         144.3873  140.2859  162.7542 C.3     1  UNL1        0.0946
     28 O         141.9665  139.4576  163.2054 O.2     1  UNL1       -0.2751
     29 H         144.7559  139.1834  165.2776 H       1  UNL1        0.1494
     30 C         140.3692  139.4636  158.5955 C.ar    1  UNL1        0.0072
     31 C         139.1699  139.9727  159.3388 C.ar    1  UNL1       -0.0021
     32 C         139.2791  141.2083  160.1822 C.ar    1  UNL1       -0.0023
     33 C         140.5876  141.9348  160.2823 C.ar    1  UNL1        0.0021
     34 C         141.7869  141.4257  159.5390 C.ar    1  UNL1       -0.0023
     35 C         141.6776  140.1901  158.6956 C.ar    1  UNL1       -0.0021
     36 C         140.2599  138.2280  157.7521 C.3     1  UNL1        0.1686
     37 O         139.1398  138.0910  156.7640 O.3     1  UNL1       -0.3489
     38 C         139.0954  138.9752  155.5532 C.3     1  UNL1        0.1451
     39 C         138.1667  140.1527  155.5179 C.3     1  UNL1        0.0593
     40 C         138.6425  141.4973  155.9822 C.3     1  UNL1        0.0052
     41 C         136.7623  139.9855  155.0184 C.3     1  UNL1        0.1447
     42 C         134.2109  139.8611  155.4930 C.3     1  UNL1        0.1741
     43 O         135.6247  139.9022  155.9926 O.3     1  UNL1       -0.3510
@<TRIPOS>BOND
     1    42    43    1
     2    43    41    1
     3    41    39    1
     4    39    40    1
     5    39    38    1
     6    38    37    1
     7    37    36    1
     8    36    30    1
     9    30    31   ar
    10    31    32   ar
    11    32    33   ar
    12    33     1    1
    13     1     2    1
    14     1     3    1
    15     3     4    1
    16     4     5    1
    17     5     6    1
    18     6     7    1
    19     7    10    1
    20    10    11   ar
    21    11    12   ar
    22    12    13   ar
    23    13    17    1
    24    17    18   ar
    25    18    19   ar
    26    19    20   ar
    27    20    21   ar
    28    21    22   ar
    29    22    23    1
    30    23    24    1
    31    24    25    1
    32    25    26   am
    33    26    27    1
    34    26    28    2
    35    13    14   ar
    36    14    15   ar
    37    15    16    1
    38    33    34   ar
    39    34    35   ar
    40    35    30   ar
    41     7     1    1
    42    15    10   ar
    43    22    17   ar
    44     2     8    1
    45     5     9    1
    46    25    29    1
