@<TRIPOS>MOLECULE
*****
 43 47 0 0 0
SMALL
GASTEIGER

@<TRIPOS>ATOM
      1 C         141.5632  140.8085  162.4963 C.3     1  UNL1        0.0807
      2 C         141.8417  140.4051  163.9140 C.ar    1  UNL1        0.0375
      3 C         142.0018  141.4538  164.9745 C.ar    1  UNL1        0.0023
      4 C         142.2803  141.0504  166.3922 C.ar    1  UNL1        0.0183
      5 C         142.4405  142.0990  167.4527 C.ar    1  UNL1        0.0118
      6 C         142.7189  141.6956  168.8703 C.ar    1  UNL1        0.0685
      7 C         142.8372  140.2435  169.2274 C.ar    1  UNL1        0.0118
      8 C         142.6770  139.1949  168.1669 C.ar    1  UNL1        0.0199
      9 C         142.3986  139.5983  166.7493 C.ar    1  UNL1        0.0844
     10 N         142.2384  138.5497  165.6888 N.ar    1  UNL1       -0.2119
     11 C         141.9599  138.9531  164.2712 C.ar    1  UNL1        0.2211
     12 C         142.8792  142.7442  169.9309 C.1     1  UNL1        0.1004
     13 N         143.0393  143.7928  170.9914 N.1     1  UNL1       -0.1908
     14 O         141.7997  137.9044  163.2106 O.3     1  UNL1       -0.4563
     15 C         140.5762  137.1215  163.5849 C.3     1  UNL1        0.2542
     16 C         140.2927  140.3731  161.8284 C.ar    1  UNL1        0.0213
     17 C         138.9707  140.6398  162.4851 C.ar    1  UNL1       -0.0007
     18 C         137.7001  140.2043  161.8172 C.ar    1  UNL1        0.0030
     19 C         137.7515  139.5023  160.4927 C.ar    1  UNL1        0.0400
     20 C         139.0736  139.2357  159.8360 C.ar    1  UNL1        0.1721
     21 C         140.3441  139.6711  160.5039 C.ar    1  UNL1        0.1687
     22 O         141.6660  139.4045  159.8472 O.3     1  UNL1       -0.4687
     23 C         141.7175  138.7024  158.5226 C.3     1  UNL1        0.2526
     24 C         140.4469  138.2670  157.8547 C.3     1  UNL1        0.2526
     25 O         139.1250  138.5337  158.5114 O.3     1  UNL1       -0.4684
     26 C         142.5553  141.6473  161.7466 C.3     1  UNL1        0.1162
     27 O         143.5724  140.5513  161.8662 O.3     1  UNL1       -0.3820
     28 H         144.3965  140.8264  161.4349 H       1  UNL1        0.2107
     29 C         139.9806  144.4989  162.7413 C.ar    1  UNL1        0.2272
     30 C         140.9977  143.4028  162.8610 C.ar    1  UNL1        0.0559
     31 C         141.5383  142.7434  161.6270 C.ar    1  UNL1        0.0117
     32 C         141.0618  143.1799  160.2733 C.ar    1  UNL1        0.0559
     33 C         140.0448  144.2760  160.1537 C.ar    1  UNL1        0.2272
     34 N         139.5042  144.9354  161.3877 N.ar    1  UNL1       -0.1767
     35 C         138.3236  144.5139  164.7423 C.3     1  UNL1        0.2542
     36 O         139.4400  145.1583  163.9754 O.3     1  UNL1       -0.4561
     37 O         139.5683  144.7125  158.8000 O.3     1  UNL1       -0.4561
     38 C         140.3445  145.7363  158.0259 C.3     1  UNL1        0.2542
     39 C         143.5474  142.4861  160.9968 C.3     1  UNL1        0.0491
     40 C         144.7990  142.9554  161.6775 C.3     1  UNL1        0.0750
     41 N         144.8752  142.9769  163.1754 N.3     1  UNL1       -0.2702
     42 C         144.2249  144.0890  163.9437 C.3     1  UNL1        0.0897
     43 C         145.6016  141.8861  163.9051 C.3     1  UNL1        0.0897
@<TRIPOS>BOND
     1    35    36    1
     2    36    29    1
     3    29    30   ar
     4    30    31   ar
     5    31    26    1
     6    26    27    1
     7    26    39    1
     8    39    40    1
     9    40    41    1
    10    41    42    1
    11    41    43    1
    12    26     1    1
    13     1     2    1
    14     2     3   ar
    15     3     4   ar
    16     4     5   ar
    17     5     6   ar
    18     6    12    1
    19    12    13    3
    20     6     7   ar
    21     7     8   ar
    22     8     9   ar
    23     9    10   ar
    24    10    11   ar
    25    11    14    1
    26    14    15    1
    27     1    16    1
    28    16    17   ar
    29    17    18   ar
    30    18    19   ar
    31    19    20   ar
    32    20    21   ar
    33    21    22    1
    34    22    23    1
    35    23    24    1
    36    24    25    1
    37    31    32   ar
    38    32    33   ar
    39    33    37    1
    40    37    38    1
    41    33    34   ar
    42    34    29   ar
    43    11     2   ar
    44    21    16   ar
    45     9     4   ar
    46    25    20    1
    47    27    28    1
@<TRIPOS>MOLECULE
*****
 43 47 0 0 0
SMALL
GASTEIGER

@<TRIPOS>ATOM
      1 C         141.5413  140.8281  162.4714 C.3     1  UNL1        0.0807
      2 C         141.8250  140.4175  163.8860 C.ar    1  UNL1        0.0375
      3 C         141.9867  141.4606  164.9516 C.ar    1  UNL1        0.0023
      4 C         142.2704  141.0500  166.3663 C.ar    1  UNL1        0.0183
      5 C         142.4322  142.0932  167.4319 C.ar    1  UNL1        0.0118
      6 C         142.7158  141.6825  168.8464 C.ar    1  UNL1        0.0685
      7 C         142.8377  140.2288  169.1953 C.ar    1  UNL1        0.0118
      8 C         142.6759  139.1856  168.1296 C.ar    1  UNL1        0.0199
      9 C         142.3922  139.5963  166.7151 C.ar    1  UNL1        0.0844
     10 N         142.2304  138.5531  165.6494 N.ar    1  UNL1       -0.2119
     11 C         141.9468  138.9637  164.2349 C.ar    1  UNL1        0.2211
     12 C         142.8776  142.7257  169.9121 C.1     1  UNL1        0.1004
     13 N         143.0395  143.7688  170.9778 N.1     1  UNL1       -0.1908
     14 O         141.7850  137.9206  163.1691 O.3     1  UNL1       -0.4563
     15 C         140.5463  137.1537  163.5261 C.3     1  UNL1        0.2542
     16 C         140.2638  140.4045  161.8093 C.ar    1  UNL1        0.0213
     17 C         138.9475  140.6801  162.4738 C.ar    1  UNL1       -0.0007
     18 C         137.6699  140.2565  161.8117 C.ar    1  UNL1        0.0030
     19 C         137.7085  139.5574  160.4852 C.ar    1  UNL1        0.0400
     20 C         139.0249  139.2818  159.8207 C.ar    1  UNL1        0.1721
     21 C         140.3024  139.7054  160.4828 C.ar    1  UNL1        0.1687
     22 O         141.6186  139.4299  159.8183 O.3     1  UNL1       -0.4687
     23 C         141.6573  138.7308  158.4917 C.3     1  UNL1        0.2526
     24 C         140.3798  138.3072  157.8297 C.3     1  UNL1        0.2526
     25 O         139.0635  138.5827  158.4941 O.3     1  UNL1       -0.4684
     26 C         142.5353  141.6623  161.7190 C.3     1  UNL1        0.1162
     27 O         143.5441  140.5575  161.8268 O.3     1  UNL1       -0.3820
     28 H         144.3676  140.8279  161.3913 H       1  UNL1        0.2107
     29 C         140.0537  144.3349  160.1541 C.ar    1  UNL1        0.2272
     30 C         141.0625  143.2301  160.2619 C.ar    1  UNL1        0.0559
     31 C         141.5264  142.7671  161.6111 C.ar    1  UNL1        0.0117
     32 C         140.9815  143.4089  162.8525 C.ar    1  UNL1        0.0559
     33 C         139.9726  144.5137  162.7447 C.ar    1  UNL1        0.2272
     34 N         139.5088  144.9767  161.3955 N.ar    1  UNL1       -0.1767
     35 C         140.4575  145.7055  157.9842 C.3     1  UNL1        0.2542
     36 O         139.5898  144.7979  158.8048 O.3     1  UNL1       -0.4561
     37 O         139.4277  145.1556  163.9862 O.3     1  UNL1       -0.4561
     38 C         138.3156  144.4951  164.7457 C.3     1  UNL1        0.2542
     39 C         143.5292  142.4965  160.9665 C.3     1  UNL1        0.0491
     40 C         144.7924  142.9464  161.6388 C.3     1  UNL1        0.0750
     41 N         144.8691  142.9943  163.1361 N.3     1  UNL1       -0.2702
     42 C         145.6087  141.9247  163.8837 C.3     1  UNL1        0.0897
     43 C         144.2062  144.1116  163.8857 C.3     1  UNL1        0.0897
@<TRIPOS>BOND
     1    35    36    1
     2    36    29    1
     3    29    30   ar
     4    30    31   ar
     5    31    26    1
     6    26    27    1
     7    26    39    1
     8    39    40    1
     9    40    41    1
    10    41    42    1
    11    41    43    1
    12    26     1    1
    13     1     2    1
    14     2     3   ar
    15     3     4   ar
    16     4     5   ar
    17     5     6   ar
    18     6    12    1
    19    12    13    3
    20     6     7   ar
    21     7     8   ar
    22     8     9   ar
    23     9    10   ar
    24    10    11   ar
    25    11    14    1
    26    14    15    1
    27     1    16    1
    28    16    17   ar
    29    17    18   ar
    30    18    19   ar
    31    19    20   ar
    32    20    21   ar
    33    21    22    1
    34    22    23    1
    35    23    24    1
    36    24    25    1
    37    31    32   ar
    38    32    33   ar
    39    33    37    1
    40    37    38    1
    41    33    34   ar
    42    34    29   ar
    43    11     2   ar
    44    21    16   ar
    45     9     4   ar
    46    25    20    1
    47    27    28    1
@<TRIPOS>MOLECULE
*****
 43 47 0 0 0
SMALL
GASTEIGER

@<TRIPOS>ATOM
      1 C         140.7415  140.8062  162.7099 C.3     1  UNL1        0.0807
      2 C         140.1843  140.5077  164.0703 C.ar    1  UNL1        0.0375
      3 C         140.8287  141.0959  165.2903 C.ar    1  UNL1        0.0023
      4 C         140.2715  140.7974  166.6507 C.ar    1  UNL1        0.0183
      5 C         140.9159  141.3857  167.8707 C.ar    1  UNL1        0.0118
      6 C         140.3587  141.0872  169.2310 C.ar    1  UNL1        0.0685
      7 C         139.1571  140.2004  169.3712 C.ar    1  UNL1        0.0118
      8 C         138.5127  139.6121  168.1512 C.ar    1  UNL1        0.0199
      9 C         139.0699  139.9106  166.7909 C.ar    1  UNL1        0.0844
     10 N         138.4254  139.3223  165.5707 N.ar    1  UNL1       -0.2119
     11 C         138.9827  139.6209  164.2105 C.ar    1  UNL1        0.2211
     12 C         141.0032  141.6755  170.4512 C.1     1  UNL1        0.1004
     13 N         141.6476  142.2637  171.6713 N.1     1  UNL1       -0.1908
     14 O         138.3382  139.0326  162.9903 O.3     1  UNL1       -0.4563
     15 C         138.7427  137.5884  162.9649 C.3     1  UNL1        0.2542
     16 C         141.5814  139.7842  162.0027 C.ar    1  UNL1        0.0213
     17 C         142.8034  139.2261  162.6698 C.ar    1  UNL1       -0.0007
     18 C         143.6434  138.2041  161.9626 C.ar    1  UNL1        0.0030
     19 C         143.2613  137.7404  160.5882 C.ar    1  UNL1        0.0400
     20 C         142.0392  138.2985  159.9211 C.ar    1  UNL1        0.1721
     21 C         141.1993  139.3205  160.6283 C.ar    1  UNL1        0.1687
     22 O         139.9773  139.8786  159.9612 O.3     1  UNL1       -0.4687
     23 C         139.5952  139.4148  158.5868 C.3     1  UNL1        0.2526
     24 C         140.4351  138.3929  157.8796 C.3     1  UNL1        0.2526
     25 O         141.6571  137.8348  158.5467 O.3     1  UNL1       -0.4684
     26 C         140.4588  142.1266  162.0569 C.3     1  UNL1        0.1162
     27 O         139.0037  141.7724  161.9707 O.3     1  UNL1       -0.3820
     28 H         138.5177  142.5011  161.5540 H       1  UNL1        0.2107
     29 C         144.2213  142.8095  160.9952 C.ar    1  UNL1        0.2272
     30 C         142.7662  142.4553  160.9090 C.ar    1  UNL1        0.0559
     31 C         141.9138  142.4808  162.1430 C.ar    1  UNL1        0.0117
     32 C         142.5164  142.8604  163.4631 C.ar    1  UNL1        0.0559
     33 C         143.9715  143.2145  163.5492 C.ar    1  UNL1        0.2272
     34 N         144.8239  143.1891  162.3152 N.ar    1  UNL1       -0.1767
     35 C         144.5069  142.2761  158.4685 C.3     1  UNL1        0.2542
     36 O         145.0737  142.7840  159.7611 O.3     1  UNL1       -0.4561
     37 O         144.5741  143.5942  164.8694 O.3     1  UNL1       -0.4561
     38 C         144.0388  142.9979  166.1374 C.3     1  UNL1        0.2542
     39 C         140.1760  143.4470  161.4038 C.3     1  UNL1        0.0491
     40 C         139.8436  144.6438  162.2448 C.3     1  UNL1        0.0750
     41 N         138.9824  144.4885  163.4630 N.3     1  UNL1       -0.2702
     42 C         139.5970  144.5562  164.8296 C.3     1  UNL1        0.0897
     43 C         137.5065  144.2656  163.3147 C.3     1  UNL1        0.0897
@<TRIPOS>BOND
     1    35    36    1
     2    36    29    1
     3    29    30   ar
     4    30    31   ar
     5    31    26    1
     6    26    27    1
     7    26    39    1
     8    39    40    1
     9    40    41    1
    10    41    42    1
    11    41    43    1
    12    26     1    1
    13     1     2    1
    14     2     3   ar
    15     3     4   ar
    16     4     5   ar
    17     5     6   ar
    18     6    12    1
    19    12    13    3
    20     6     7   ar
    21     7     8   ar
    22     8     9   ar
    23     9    10   ar
    24    10    11   ar
    25    11    14    1
    26    14    15    1
    27     1    16    1
    28    16    17   ar
    29    17    18   ar
    30    18    19   ar
    31    19    20   ar
    32    20    21   ar
    33    21    22    1
    34    22    23    1
    35    23    24    1
    36    24    25    1
    37    31    32   ar
    38    32    33   ar
    39    33    37    1
    40    37    38    1
    41    33    34   ar
    42    34    29   ar
    43    11     2   ar
    44    21    16   ar
    45     9     4   ar
    46    25    20    1
    47    27    28    1
@<TRIPOS>MOLECULE
*****
 43 47 0 0 0
SMALL
GASTEIGER

@<TRIPOS>ATOM
      1 C         141.3549  142.4272  162.4050 C.3     1  UNL1        0.0807
      2 C         141.8455  142.3714  163.8215 C.ar    1  UNL1        0.0375
      3 C         141.0053  141.7226  164.8812 C.ar    1  UNL1        0.0023
      4 C         141.4958  141.6668  166.2976 C.ar    1  UNL1        0.0183
      5 C         140.6556  141.0180  167.3573 C.ar    1  UNL1        0.0118
      6 C         141.1462  140.9622  168.7737 C.ar    1  UNL1        0.0685
      7 C         142.4771  141.5553  169.1304 C.ar    1  UNL1        0.0118
      8 C         143.3173  142.2041  168.0707 C.ar    1  UNL1        0.0199
      9 C         142.8267  142.2599  166.6543 C.ar    1  UNL1        0.0844
     10 N         143.6669  142.9087  165.5945 N.ar    1  UNL1       -0.2119
     11 C         143.1763  142.9645  164.1781 C.ar    1  UNL1        0.2211
     12 C         140.3060  140.3134  169.8335 C.1     1  UNL1        0.1004
     13 N         139.4659  139.6646  170.8933 N.1     1  UNL1       -0.1908
     14 O         144.0165  143.6133  163.1183 O.3     1  UNL1       -0.4563
     15 C         143.8180  145.0912  163.2807 C.3     1  UNL1        0.2542
     16 C         142.2337  141.9488  161.2875 C.ar    1  UNL1        0.0213
     17 C         142.5446  142.8584  160.1360 C.ar    1  UNL1       -0.0007
     18 C         143.4235  142.3800  159.0185 C.ar    1  UNL1        0.0030
     19 C         143.9913  140.9920  159.0525 C.ar    1  UNL1        0.0400
     20 C         143.6804  140.0825  160.2041 C.ar    1  UNL1        0.1721
     21 C         142.8016  140.5609  161.3216 C.ar    1  UNL1        0.1687
     22 O         142.4907  139.6514  162.4731 O.3     1  UNL1       -0.4687
     23 C         143.0585  138.2634  162.5071 C.3     1  UNL1        0.2526
     24 C         143.9373  137.7850  161.3897 C.3     1  UNL1        0.2526
     25 O         144.2483  138.6946  160.2382 O.3     1  UNL1       -0.4684
     26 C         139.9855  142.9614  162.1061 C.3     1  UNL1        0.1162
     27 O         140.4276  144.3311  162.5287 O.3     1  UNL1       -0.3820
     28 H         139.6879  144.9520  162.4376 H       1  UNL1        0.2107
     29 C         138.8946  139.1501  162.2895 C.ar    1  UNL1        0.2272
     30 C         139.3367  140.5198  162.7121 C.ar    1  UNL1        0.0559
     31 C         139.5434  141.5918  161.6835 C.ar    1  UNL1        0.0117
     32 C         139.3080  141.2941  160.2324 C.ar    1  UNL1        0.0559
     33 C         138.8659  139.9244  159.8098 C.ar    1  UNL1        0.2272
     34 N         138.6592  138.8524  160.8384 N.ar    1  UNL1       -0.1767
     35 C         139.7770  137.7603  164.2995 C.3     1  UNL1        0.2542
     36 O         138.6879  138.0781  163.3182 O.3     1  UNL1       -0.4561
     37 O         138.6306  139.6268  158.3585 O.3     1  UNL1       -0.4561
     38 C         138.0741  140.6878  157.4560 C.3     1  UNL1        0.2542
     39 C         138.6161  143.4957  161.8072 C.3     1  UNL1        0.0491
     40 C         137.8547  144.2408  162.8632 C.3     1  UNL1        0.0750
     41 N         138.0092  143.8629  164.3066 N.3     1  UNL1       -0.2702
     42 C         137.5811  142.5041  164.7760 C.3     1  UNL1        0.0897
     43 C         138.5917  144.8437  165.2805 C.3     1  UNL1        0.0897
@<TRIPOS>BOND
     1    35    36    1
     2    36    29    1
     3    29    30   ar
     4    30    31   ar
     5    31    26    1
     6    26    27    1
     7    26    39    1
     8    39    40    1
     9    40    41    1
    10    41    42    1
    11    41    43    1
    12    26     1    1
    13     1     2    1
    14     2     3   ar
    15     3     4   ar
    16     4     5   ar
    17     5     6   ar
    18     6    12    1
    19    12    13    3
    20     6     7   ar
    21     7     8   ar
    22     8     9   ar
    23     9    10   ar
    24    10    11   ar
    25    11    14    1
    26    14    15    1
    27     1    16    1
    28    16    17   ar
    29    17    18   ar
    30    18    19   ar
    31    19    20   ar
    32    20    21   ar
    33    21    22    1
    34    22    23    1
    35    23    24    1
    36    24    25    1
    37    31    32   ar
    38    32    33   ar
    39    33    37    1
    40    37    38    1
    41    33    34   ar
    42    34    29   ar
    43    11     2   ar
    44    21    16   ar
    45     9     4   ar
    46    25    20    1
    47    27    28    1
@<TRIPOS>MOLECULE
*****
 43 47 0 0 0
SMALL
GASTEIGER

@<TRIPOS>ATOM
      1 C         140.7145  140.7986  162.5544 C.3     1  UNL1        0.0807
      2 C         140.1733  140.5014  163.9215 C.ar    1  UNL1        0.0375
      3 C         140.8368  141.0844  165.1338 C.ar    1  UNL1        0.0023
      4 C         140.2956  140.7872  166.5009 C.ar    1  UNL1        0.0183
      5 C         140.9591  141.3701  167.7132 C.ar    1  UNL1        0.0118
      6 C         140.4178  141.0730  169.0802 C.ar    1  UNL1        0.0685
      7 C         139.2130  140.1929  169.2349 C.ar    1  UNL1        0.0118
      8 C         138.5495  139.6100  168.0225 C.ar    1  UNL1        0.0199
      9 C         139.0907  139.9072  166.6555 C.ar    1  UNL1        0.0844
     10 N         138.4272  139.3242  165.4431 N.ar    1  UNL1       -0.2119
     11 C         138.9684  139.6214  164.0761 C.ar    1  UNL1        0.2211
     12 C         141.0814  141.6559  170.2927 C.1     1  UNL1        0.1004
     13 N         141.7449  142.2388  171.5051 N.1     1  UNL1       -0.1908
     14 O         138.3049  139.0384  162.8636 O.3     1  UNL1       -0.4563
     15 C         138.7019  137.5924  162.8302 C.3     1  UNL1        0.2542
     16 C         141.4937  139.7532  161.8127 C.ar    1  UNL1        0.0213
     17 C         142.7186  139.1497  162.4335 C.ar    1  UNL1       -0.0007
     18 C         143.4978  138.1043  161.6918 C.ar    1  UNL1        0.0030
     19 C         143.0521  137.6625  160.3294 C.ar    1  UNL1        0.0400
     20 C         141.8271  138.2660  159.7087 C.ar    1  UNL1        0.1721
     21 C         141.0479  139.3114  160.4503 C.ar    1  UNL1        0.1687
     22 O         139.8231  139.9149  159.8296 O.3     1  UNL1       -0.4687
     23 C         139.3773  139.4731  158.4672 C.3     1  UNL1        0.2526
     24 C         140.1565  138.4277  157.7255 C.3     1  UNL1        0.2526
     25 O         141.3814  137.8242  158.3463 O.3     1  UNL1       -0.4684
     26 C         140.4766  142.1411  161.9290 C.3     1  UNL1        0.1162
     27 O         139.0023  141.8657  161.8989 O.3     1  UNL1       -0.3820
     28 H         138.5395  142.6249  161.5112 H       1  UNL1        0.2107
     29 C         144.1133  142.9494  163.2968 C.ar    1  UNL1        0.2272
     30 C         142.6391  142.6740  163.2667 C.ar    1  UNL1        0.0559
     31 C         141.9508  142.4164  161.9591 C.ar    1  UNL1        0.0117
     32 C         142.7367  142.4341  160.6817 C.ar    1  UNL1        0.0559
     33 C         144.2109  142.7094  160.7118 C.ar    1  UNL1        0.2272
     34 N         144.8992  142.9670  162.0194 N.ar    1  UNL1       -0.1767
     35 C         144.0522  143.0369  165.8927 C.3     1  UNL1        0.2542
     36 O         144.8016  143.2070  164.6045 O.3     1  UNL1       -0.4561
     37 O         144.9968  142.7271  159.4342 O.3     1  UNL1       -0.4561
     38 C         144.5134  141.9505  158.2455 C.3     1  UNL1        0.2542
     39 C         140.2386  143.4836  161.3037 C.3     1  UNL1        0.0491
     40 C         139.9324  144.6702  162.1686 C.3     1  UNL1        0.0750
     41 N         139.0717  144.5085  163.3864 N.3     1  UNL1       -0.2702
     42 C         137.5874  144.3494  163.2399 C.3     1  UNL1        0.0897
     43 C         139.6952  144.5059  164.7506 C.3     1  UNL1        0.0897
@<TRIPOS>BOND
     1    35    36    1
     2    36    29    1
     3    29    30   ar
     4    30    31   ar
     5    31    26    1
     6    26    27    1
     7    26    39    1
     8    39    40    1
     9    40    41    1
    10    41    42    1
    11    41    43    1
    12    26     1    1
    13     1     2    1
    14     2     3   ar
    15     3     4   ar
    16     4     5   ar
    17     5     6   ar
    18     6    12    1
    19    12    13    3
    20     6     7   ar
    21     7     8   ar
    22     8     9   ar
    23     9    10   ar
    24    10    11   ar
    25    11    14    1
    26    14    15    1
    27     1    16    1
    28    16    17   ar
    29    17    18   ar
    30    18    19   ar
    31    19    20   ar
    32    20    21   ar
    33    21    22    1
    34    22    23    1
    35    23    24    1
    36    24    25    1
    37    31    32   ar
    38    32    33   ar
    39    33    37    1
    40    37    38    1
    41    33    34   ar
    42    34    29   ar
    43    11     2   ar
    44    21    16   ar
    45     9     4   ar
    46    25    20    1
    47    27    28    1
@<TRIPOS>MOLECULE
*****
 43 47 0 0 0
SMALL
GASTEIGER

@<TRIPOS>ATOM
      1 C         142.2244  141.3980  162.8694 C.3     1  UNL1        0.0807
      2 C         142.4753  141.6370  164.3289 C.ar    1  UNL1        0.0375
      3 C         141.6261  140.9516  165.3580 C.ar    1  UNL1        0.0023
      4 C         141.8770  141.1907  166.8174 C.ar    1  UNL1        0.0183
      5 C         141.0278  140.5053  167.8465 C.ar    1  UNL1        0.0118
      6 C         141.2788  140.7444  169.3059 C.ar    1  UNL1        0.0685
      7 C         142.3789  141.6688  169.7362 C.ar    1  UNL1        0.0118
      8 C         143.2281  142.3542  168.7071 C.ar    1  UNL1        0.0199
      9 C         142.9771  142.1151  167.2477 C.ar    1  UNL1        0.0844
     10 N         143.8263  142.8006  166.2185 N.ar    1  UNL1       -0.2119
     11 C         143.5754  142.5615  164.7592 C.ar    1  UNL1        0.2211
     12 C         140.4296  140.0589  170.3351 C.1     1  UNL1        0.1004
     13 N         139.5804  139.3736  171.3642 N.1     1  UNL1       -0.1908
     14 O         144.4246  143.2469  163.7300 O.3     1  UNL1       -0.4563
     15 C         143.9429  144.6664  163.6755 C.3     1  UNL1        0.2542
     16 C         141.5779  142.4638  162.0351 C.ar    1  UNL1        0.0213
     17 C         142.2588  142.9613  160.7947 C.ar    1  UNL1       -0.0007
     18 C         141.6124  144.0272  159.9603 C.ar    1  UNL1        0.0030
     19 C         140.2849  144.5955  160.3665 C.ar    1  UNL1        0.0400
     20 C         139.6040  144.0979  161.6070 C.ar    1  UNL1        0.1721
     21 C         140.2505  143.0321  162.4413 C.ar    1  UNL1        0.1687
     22 O         139.5695  142.5346  163.6817 O.3     1  UNL1       -0.4687
     23 C         138.2421  143.1029  164.0879 C.3     1  UNL1        0.2526
     24 C         137.5956  144.1687  163.2536 C.3     1  UNL1        0.2526
     25 O         138.2766  144.6662  162.0132 O.3     1  UNL1       -0.4684
     26 C         142.6200  140.0931  162.2443 C.3     1  UNL1        0.1162
     27 O         144.0598  140.5120  162.2811 O.3     1  UNL1       -0.3820
     28 H         144.6114  139.8067  161.9079 H       1  UNL1        0.2107
     29 C         138.9651  139.3466  160.8898 C.ar    1  UNL1        0.2272
     30 C         140.4050  139.7655  160.9266 C.ar    1  UNL1        0.0559
     31 C         141.1801  139.6742  162.2075 C.ar    1  UNL1        0.0117
     32 C         140.5154  139.1640  163.4516 C.ar    1  UNL1        0.0559
     33 C         139.0756  138.7451  163.4148 C.ar    1  UNL1        0.2272
     34 N         138.3004  138.8364  162.1339 N.ar    1  UNL1       -0.1767
     35 C         138.2137  140.7051  158.8065 C.3     1  UNL1        0.2542
     36 O         138.1900  139.4379  159.6088 O.3     1  UNL1       -0.4561
     37 O         138.4109  138.2349  164.6590 O.3     1  UNL1       -0.4561
     38 C         138.2247  139.1448  165.8368 C.3     1  UNL1        0.2542
     39 C         143.0156  138.7882  161.6192 C.3     1  UNL1        0.0491
     40 C         144.0074  138.7657  160.4941 C.3     1  UNL1        0.0750
     41 N         143.5989  139.2225  159.1250 N.3     1  UNL1       -0.2702
     42 C         142.7313  138.3471  158.2701 C.3     1  UNL1        0.0897
     43 C         144.0581  140.5546  158.6107 C.3     1  UNL1        0.0897
@<TRIPOS>BOND
     1    35    36    1
     2    36    29    1
     3    29    30   ar
     4    30    31   ar
     5    31    26    1
     6    26    27    1
     7    26    39    1
     8    39    40    1
     9    40    41    1
    10    41    42    1
    11    41    43    1
    12    26     1    1
    13     1     2    1
    14     2     3   ar
    15     3     4   ar
    16     4     5   ar
    17     5     6   ar
    18     6    12    1
    19    12    13    3
    20     6     7   ar
    21     7     8   ar
    22     8     9   ar
    23     9    10   ar
    24    10    11   ar
    25    11    14    1
    26    14    15    1
    27     1    16    1
    28    16    17   ar
    29    17    18   ar
    30    18    19   ar
    31    19    20   ar
    32    20    21   ar
    33    21    22    1
    34    22    23    1
    35    23    24    1
    36    24    25    1
    37    31    32   ar
    38    32    33   ar
    39    33    37    1
    40    37    38    1
    41    33    34   ar
    42    34    29   ar
    43    11     2   ar
    44    21    16   ar
    45     9     4   ar
    46    25    20    1
    47    27    28    1
@<TRIPOS>MOLECULE
*****
 43 47 0 0 0
SMALL
GASTEIGER

@<TRIPOS>ATOM
      1 C         142.3083  141.4346  163.0159 C.3     1  UNL1        0.0807
      2 C         142.5152  141.6683  164.4832 C.ar    1  UNL1        0.0375
      3 C         141.6530  140.9587  165.4846 C.ar    1  UNL1        0.0023
      4 C         141.8599  141.1923  166.9518 C.ar    1  UNL1        0.0183
      5 C         140.9976  140.4827  167.9532 C.ar    1  UNL1        0.0118
      6 C         141.2045  140.7164  169.4203 C.ar    1  UNL1        0.0685
      7 C         142.2737  141.6597  169.8860 C.ar    1  UNL1        0.0118
      8 C         143.1360  142.3694  168.8846 C.ar    1  UNL1        0.0199
      9 C         142.9291  142.1357  167.4175 C.ar    1  UNL1        0.0844
     10 N         143.7913  142.8454  166.4160 N.ar    1  UNL1       -0.2119
     11 C         143.5844  142.6117  164.9489 C.ar    1  UNL1        0.2211
     12 C         140.3423  140.0067  170.4218 C.1     1  UNL1        0.1004
     13 N         139.4800  139.2970  171.4232 N.1     1  UNL1       -0.1908
     14 O         144.4467  143.3214  163.9474 O.3     1  UNL1       -0.4563
     15 C         143.9433  144.7334  163.8955 C.3     1  UNL1        0.2542
     16 C         141.6879  142.5039  162.1664 C.ar    1  UNL1        0.0213
     17 C         142.4192  143.0258  160.9652 C.ar    1  UNL1       -0.0007
     18 C         141.7988  144.0951  160.1155 C.ar    1  UNL1        0.0030
     19 C         140.4472  144.6424  160.4671 C.ar    1  UNL1        0.0400
     20 C         139.7160  144.1204  161.6683 C.ar    1  UNL1        0.1721
     21 C         140.3363  143.0512  162.5179 C.ar    1  UNL1        0.1687
     22 O         139.6051  142.5293  163.7191 O.3     1  UNL1       -0.4687
     23 C         138.2535  143.0766  164.0706 C.3     1  UNL1        0.2526
     24 C         137.6331  144.1458  163.2211 C.3     1  UNL1        0.2526
     25 O         138.3644  144.6677  162.0199 O.3     1  UNL1       -0.4684
     26 C         142.7218  140.1317  162.3984 C.3     1  UNL1        0.1162
     27 O         144.1612  140.5422  162.4961 O.3     1  UNL1       -0.3820
     28 H         144.7236  139.8363  162.1407 H       1  UNL1        0.2107
     29 C         139.1478  138.7238  163.3955 C.ar    1  UNL1        0.2272
     30 C         140.5872  139.1342  163.4932 C.ar    1  UNL1        0.0559
     31 C         141.2824  139.7212  162.3007 C.ar    1  UNL1        0.0117
     32 C         140.5380  139.8977  161.0104 C.ar    1  UNL1        0.0559
     33 C         139.0986  139.4872  160.9127 C.ar    1  UNL1        0.2272
     34 N         138.4035  138.9002  162.1053 N.ar    1  UNL1       -0.1767
     35 C         138.3560  138.9229  165.8620 C.3     1  UNL1        0.2542
     36 O         138.4527  138.1368  164.5882 O.3     1  UNL1       -0.4561
     37 O         138.3543  139.6637  159.6224 O.3     1  UNL1       -0.4561
     38 C         139.1079  139.7602  158.3290 C.3     1  UNL1        0.2542
     39 C         143.1353  138.8287  161.7809 C.3     1  UNL1        0.0491
     40 C         144.0819  138.8172  160.6174 C.3     1  UNL1        0.0750
     41 N         143.5839  139.1486  159.2419 N.3     1  UNL1       -0.2702
     42 C         143.9463  140.4591  158.6086 C.3     1  UNL1        0.0897
     43 C         142.7233  138.1695  158.4997 C.3     1  UNL1        0.0897
@<TRIPOS>BOND
     1    35    36    1
     2    36    29    1
     3    29    30   ar
     4    30    31   ar
     5    31    26    1
     6    26    27    1
     7    26    39    1
     8    39    40    1
     9    40    41    1
    10    41    42    1
    11    41    43    1
    12    26     1    1
    13     1     2    1
    14     2     3   ar
    15     3     4   ar
    16     4     5   ar
    17     5     6   ar
    18     6    12    1
    19    12    13    3
    20     6     7   ar
    21     7     8   ar
    22     8     9   ar
    23     9    10   ar
    24    10    11   ar
    25    11    14    1
    26    14    15    1
    27     1    16    1
    28    16    17   ar
    29    17    18   ar
    30    18    19   ar
    31    19    20   ar
    32    20    21   ar
    33    21    22    1
    34    22    23    1
    35    23    24    1
    36    24    25    1
    37    31    32   ar
    38    32    33   ar
    39    33    37    1
    40    37    38    1
    41    33    34   ar
    42    34    29   ar
    43    11     2   ar
    44    21    16   ar
    45     9     4   ar
    46    25    20    1
    47    27    28    1
@<TRIPOS>MOLECULE
*****
 43 47 0 0 0
SMALL
GASTEIGER

@<TRIPOS>ATOM
      1 C         141.2032  140.5939  163.0089 C.3     1  UNL1        0.0807
      2 C         141.4250  140.3574  164.4735 C.ar    1  UNL1        0.0375
      3 C         140.7276  141.2167  165.4859 C.ar    1  UNL1        0.0023
      4 C         140.9493  140.9802  166.9506 C.ar    1  UNL1        0.0183
      5 C         140.2520  141.8395  167.9630 C.ar    1  UNL1        0.0118
      6 C         140.4737  141.6030  169.4276 C.ar    1  UNL1        0.0685
      7 C         141.3928  140.5071  169.8796 C.ar    1  UNL1        0.0118
      8 C         142.0901  139.6477  168.8671 C.ar    1  UNL1        0.0199
      9 C         141.8684  139.8843  167.4026 C.ar    1  UNL1        0.0844
     10 N         142.5658  139.0249  166.3900 N.ar    1  UNL1       -0.2119
     11 C         142.3440  139.2615  164.9255 C.ar    1  UNL1        0.2211
     12 C         139.7764  142.4623  170.4401 C.1     1  UNL1        0.1004
     13 N         139.0791  143.3217  171.4527 N.1     1  UNL1       -0.1908
     14 O         143.0414  138.4021  163.9129 O.3     1  UNL1       -0.4563
     15 C         144.4535  138.9036  163.8475 C.3     1  UNL1        0.2542
     16 C         142.2805  141.2284  162.1801 C.ar    1  UNL1        0.0213
     17 C         142.8156  140.5163  160.9732 C.ar    1  UNL1       -0.0007
     18 C         143.8929  141.1508  160.1444 C.ar    1  UNL1        0.0030
     19 C         144.4351  142.4973  160.5225 C.ar    1  UNL1        0.0400
     20 C         143.9000  143.2093  161.7295 C.ar    1  UNL1        0.1721
     21 C         142.8227  142.5749  162.5582 C.ar    1  UNL1        0.1687
     22 O         142.2876  143.2869  163.7651 O.3     1  UNL1       -0.4687
     23 C         142.8298  144.6334  164.1433 C.3     1  UNL1        0.2526
     24 C         143.9070  145.2678  163.3145 C.3     1  UNL1        0.2526
     25 O         144.4421  144.5558  162.1076 O.3     1  UNL1       -0.4684
     26 C         139.9042  140.1959  162.3731 C.3     1  UNL1        0.1162
     27 O         140.2860  138.7507  162.4978 O.3     1  UNL1       -0.3820
     28 H         139.5763  138.1965  162.1370 H       1  UNL1        0.2107
     29 C         138.4655  143.7850  163.2666 C.ar    1  UNL1        0.2272
     30 C         138.8472  142.3398  163.3912 C.ar    1  UNL1        0.0559
     31 C         139.5225  141.6411  162.2485 C.ar    1  UNL1        0.0117
     32 C         139.8159  142.3878  160.9810 C.ar    1  UNL1        0.0559
     33 C         139.4341  143.8330  160.8564 C.ar    1  UNL1        0.2272
     34 N         138.7589  144.5316  161.9991 N.ar    1  UNL1       -0.1767
     35 C         138.5900  144.9140  165.6033 C.3     1  UNL1        0.2542
     36 O         137.7902  144.4836  164.4094 O.3     1  UNL1       -0.4561
     37 O         139.7276  144.5796  159.5889 O.3     1  UNL1       -0.4561
     38 C         141.1013  145.1295  159.3433 C.3     1  UNL1        0.2542
     39 C         138.6052  139.7979  161.7373 C.3     1  UNL1        0.0491
     40 C         138.5955  138.8209  160.5993 C.3     1  UNL1        0.0750
     41 N         138.7715  139.3077  159.1914 N.3     1  UNL1       -0.2702
     42 C         137.9091  140.4178  158.6683 C.3     1  UNL1        0.0897
     43 C         139.8100  138.6843  158.3066 C.3     1  UNL1        0.0897
@<TRIPOS>BOND
     1    35    36    1
     2    36    29    1
     3    29    30   ar
     4    30    31   ar
     5    31    26    1
     6    26    27    1
     7    26    39    1
     8    39    40    1
     9    40    41    1
    10    41    42    1
    11    41    43    1
    12    26     1    1
    13     1     2    1
    14     2     3   ar
    15     3     4   ar
    16     4     5   ar
    17     5     6   ar
    18     6    12    1
    19    12    13    3
    20     6     7   ar
    21     7     8   ar
    22     8     9   ar
    23     9    10   ar
    24    10    11   ar
    25    11    14    1
    26    14    15    1
    27     1    16    1
    28    16    17   ar
    29    17    18   ar
    30    18    19   ar
    31    19    20   ar
    32    20    21   ar
    33    21    22    1
    34    22    23    1
    35    23    24    1
    36    24    25    1
    37    31    32   ar
    38    32    33   ar
    39    33    37    1
    40    37    38    1
    41    33    34   ar
    42    34    29   ar
    43    11     2   ar
    44    21    16   ar
    45     9     4   ar
    46    25    20    1
    47    27    28    1
@<TRIPOS>MOLECULE
*****
 43 47 0 0 0
SMALL
GASTEIGER

@<TRIPOS>ATOM
      1 C         141.2787  141.5121  164.2370 C.3     1  UNL1        0.0807
      2 C         142.1838  141.8660  163.0942 C.ar    1  UNL1        0.0375
      3 C         142.1516  141.0547  161.8330 C.ar    1  UNL1        0.0023
      4 C         143.0566  141.4086  160.6903 C.ar    1  UNL1        0.0183
      5 C         143.0244  140.5973  159.4290 C.ar    1  UNL1        0.0118
      6 C         143.9294  140.9512  158.2864 C.ar    1  UNL1        0.0685
      7 C         144.8666  142.1163  158.4050 C.ar    1  UNL1        0.0118
      8 C         144.8988  142.9276  159.6662 C.ar    1  UNL1        0.0199
      9 C         143.9938  142.5737  160.8089 C.ar    1  UNL1        0.0844
     10 N         144.0260  143.3850  162.0702 N.ar    1  UNL1       -0.2119
     11 C         143.1210  143.0311  163.2128 C.ar    1  UNL1        0.2211
     12 C         143.8973  140.1399  157.0251 C.1     1  UNL1        0.1004
     13 N         143.8651  139.3286  155.7638 N.1     1  UNL1       -0.1908
     14 O         143.1531  143.8424  164.4741 O.3     1  UNL1       -0.4563
     15 C         144.4064  143.4392  165.1930 C.3     1  UNL1        0.2542
     16 C         141.8159  140.7469  165.4100 C.ar    1  UNL1        0.0213
     17 C         142.5912  139.4821  165.1888 C.ar    1  UNL1       -0.0007
     18 C         143.1284  138.7168  166.3619 C.ar    1  UNL1        0.0030
     19 C         142.8903  139.2166  167.7560 C.ar    1  UNL1        0.0400
     20 C         142.1149  140.4815  167.9771 C.ar    1  UNL1        0.1721
     21 C         141.5778  141.2467  166.8041 C.ar    1  UNL1        0.1687
     22 O         140.8025  142.5116  167.0252 O.3     1  UNL1       -0.4687
     23 C         140.5643  143.0113  168.4193 C.3     1  UNL1        0.2526
     24 C         141.1015  142.2461  169.5923 C.3     1  UNL1        0.2526
     25 O         141.8768  140.9813  169.3712 O.3     1  UNL1       -0.4684
     26 C         139.8366  141.9234  164.2066 C.3     1  UNL1        0.1162
     27 O         140.2404  143.3542  164.4063 O.3     1  UNL1       -0.3820
     28 H         139.4482  143.9133  164.4308 H       1  UNL1        0.2107
     29 C         139.0920  138.4486  162.4399 C.ar    1  UNL1        0.2272
     30 C         139.4958  139.8793  162.6396 C.ar    1  UNL1        0.0559
     31 C         139.4327  140.4927  164.0070 C.ar    1  UNL1        0.0117
     32 C         138.9657  139.6752  165.1747 C.ar    1  UNL1        0.0559
     33 C         138.5619  138.2445  164.9751 C.ar    1  UNL1        0.2272
     34 N         138.6250  137.6312  163.6077 N.ar    1  UNL1       -0.1767
     35 C         139.5386  138.6756  159.8906 C.3     1  UNL1        0.2542
     36 O         139.1551  137.8353  161.0724 O.3     1  UNL1       -0.4561
     37 O         138.0949  137.4270  166.1429 O.3     1  UNL1       -0.4561
     38 C         137.3217  138.0768  167.2519 C.3     1  UNL1        0.2542
     39 C         138.3944  142.3347  164.1763 C.3     1  UNL1        0.0491
     40 C         137.9294  143.3669  163.1923 C.3     1  UNL1        0.0750
     41 N         138.5879  143.4727  161.8487 N.3     1  UNL1       -0.2702
     42 C         138.2417  142.4954  160.7648 C.3     1  UNL1        0.0897
     43 C         139.5927  144.5557  161.5891 C.3     1  UNL1        0.0897
@<TRIPOS>BOND
     1    35    36    1
     2    36    29    1
     3    29    30   ar
     4    30    31   ar
     5    31    26    1
     6    26    27    1
     7    26    39    1
     8    39    40    1
     9    40    41    1
    10    41    42    1
    11    41    43    1
    12    26     1    1
    13     1     2    1
    14     2     3   ar
    15     3     4   ar
    16     4     5   ar
    17     5     6   ar
    18     6    12    1
    19    12    13    3
    20     6     7   ar
    21     7     8   ar
    22     8     9   ar
    23     9    10   ar
    24    10    11   ar
    25    11    14    1
    26    14    15    1
    27     1    16    1
    28    16    17   ar
    29    17    18   ar
    30    18    19   ar
    31    19    20   ar
    32    20    21   ar
    33    21    22    1
    34    22    23    1
    35    23    24    1
    36    24    25    1
    37    31    32   ar
    38    32    33   ar
    39    33    37    1
    40    37    38    1
    41    33    34   ar
    42    34    29   ar
    43    11     2   ar
    44    21    16   ar
    45     9     4   ar
    46    25    20    1
    47    27    28    1
