@<TRIPOS>MOLECULE
*****
 25 28 0 0 0
SMALL
GASTEIGER

@<TRIPOS>ATOM
      1 N         140.2170  139.9271  166.6352 N.ar    1  UNL1       -0.3100
      2 C         141.4127  139.2770  166.0044 C.ar    1  UNL1        0.1317
      3 N         142.4932  139.1891  167.0410 N.ar    1  UNL1       -0.2300
      4 C         141.9654  139.7847  168.3125 C.ar    1  UNL1        0.0984
      5 C         142.5841  139.9707  169.6662 C.ar    1  UNL1        0.0206
      6 C         141.7959  140.6128  170.7692 C.ar    1  UNL1        0.0016
      7 C         140.3891  141.0689  170.5183 C.ar    1  UNL1        0.0016
      8 C         139.7705  140.8829  169.1646 C.ar    1  UNL1        0.0188
      9 C         140.5586  140.2408  168.0617 C.ar    1  UNL1        0.0789
     10 C         141.5105  138.7989  164.5860 C.3     1  UNL1        0.1199
     11 C         141.1986  137.3701  164.2529 C.3     1  UNL1        0.0871
     12 N         141.2965  136.8920  162.8346 N.3     1  UNL1       -0.2957
     13 C         141.7063  137.8427  161.7492 C.3     1  UNL1        0.0804
     14 C         142.0183  139.2716  162.0823 C.3     1  UNL1        0.0750
     15 S         141.9204  139.7497  163.5006 S.3     1  UNL1       -0.1306
     16 H         140.3758  136.5340  162.5803 H       1  UNL1        0.1233
     17 C         138.9093  140.2131  165.9584 C.3     1  UNL1        0.1339
     18 C         138.4775  143.8491  163.3424 C.ar    1  UNL1        0.1387
     19 C         139.4177  143.8733  164.5111 C.ar    1  UNL1        0.0366
     20 C         139.5616  142.6613  165.3830 C.ar    1  UNL1        0.0007
     21 C         138.7654  141.4250  165.0864 C.ar    1  UNL1        0.0006
     22 C         137.8253  141.4009  163.9178 C.ar    1  UNL1        0.0007
     23 C         137.6814  142.6129  163.0459 C.ar    1  UNL1        0.0366
     24 C         139.5506  145.8288  162.0465 C.3     1  UNL1        0.2525
     25 O         138.3336  145.0611  162.4705 O.3     1  UNL1       -0.4714
@<TRIPOS>BOND
     1    24    25    1
     2    25    18    1
     3    18    19   ar
     4    19    20   ar
     5    20    21   ar
     6    21    17    1
     7    17     1    1
     8     1     2   ar
     9    10     2    1
    10    10    11    1
    11    11    12    1
    12    12    13    1
    13    13    14    1
    14    14    15    1
    15     2     3   ar
    16     3     4   ar
    17     4     5   ar
    18     5     6   ar
    19     6     7   ar
    20     7     8   ar
    21     8     9   ar
    22    21    22   ar
    23    22    23   ar
    24    23    18   ar
    25     9     1   ar
    26    15    10    1
    27     9     4   ar
    28    12    16    1
@<TRIPOS>MOLECULE
*****
 25 28 0 0 0
SMALL
GASTEIGER

@<TRIPOS>ATOM
      1 N         140.6911  141.1577  166.5693 N.ar    1  UNL1       -0.3100
      2 C         141.7806  140.2544  166.0724 C.ar    1  UNL1        0.1317
      3 N         142.9435  140.3703  167.0127 N.ar    1  UNL1       -0.2300
      4 C         142.5728  141.3452  168.0906 C.ar    1  UNL1        0.0984
      5 C         143.3229  141.8527  169.2863 C.ar    1  UNL1        0.0206
      6 C         142.6810  142.8469  170.2080 C.ar    1  UNL1        0.0016
      7 C         141.2888  143.3335  169.9339 C.ar    1  UNL1        0.0016
      8 C         140.5387  142.8261  168.7383 C.ar    1  UNL1        0.0188
      9 C         141.1806  141.8319  167.8166 C.ar    1  UNL1        0.0789
     10 C         141.7181  139.3874  164.8499 C.3     1  UNL1        0.1199
     11 C         141.4424  137.9192  164.9850 C.3     1  UNL1        0.0871
     12 N         141.3800  137.0522  163.7626 N.3     1  UNL1       -0.2957
     13 C         141.5932  137.6534  162.4050 C.3     1  UNL1        0.0804
     14 C         141.8689  139.1216  162.2699 C.3     1  UNL1        0.0750
     15 S         141.9314  139.9886  163.4924 S.3     1  UNL1       -0.1306
     16 H         140.4545  136.6235  163.7526 H       1  UNL1        0.1233
     17 C         139.3477  141.3527  165.9309 C.3     1  UNL1        0.1339
     18 C         138.7230  144.6895  162.9770 C.ar    1  UNL1        0.1387
     19 C         137.7632  143.5375  163.0213 C.ar    1  UNL1        0.0366
     20 C         137.9715  142.4253  164.0060 C.ar    1  UNL1        0.0007
     21 C         139.1395  142.4649  164.9464 C.ar    1  UNL1        0.0006
     22 C         140.0992  143.6169  164.9020 C.ar    1  UNL1        0.0007
     23 C         139.8909  144.7291  163.9174 C.ar    1  UNL1        0.0366
     24 C         139.6852  146.3748  161.2496 C.3     1  UNL1        0.2525
     25 O         138.5147  145.8017  161.9924 O.3     1  UNL1       -0.4714
@<TRIPOS>BOND
     1    24    25    1
     2    25    18    1
     3    18    19   ar
     4    19    20   ar
     5    20    21   ar
     6    21    17    1
     7    17     1    1
     8     1     2   ar
     9    10     2    1
    10    10    11    1
    11    11    12    1
    12    12    13    1
    13    13    14    1
    14    14    15    1
    15     2     3   ar
    16     3     4   ar
    17     4     5   ar
    18     5     6   ar
    19     6     7   ar
    20     7     8   ar
    21     8     9   ar
    22    21    22   ar
    23    22    23   ar
    24    23    18   ar
    25     9     1   ar
    26    15    10    1
    27     9     4   ar
    28    12    16    1
@<TRIPOS>MOLECULE
*****
 25 28 0 0 0
SMALL
GASTEIGER

@<TRIPOS>ATOM
      1 N         143.0479  140.2121  166.4179 N.ar    1  UNL1       -0.3100
      2 C         143.4875  141.5092  165.8061 C.ar    1  UNL1        0.1317
      3 N         143.4115  142.5699  166.8640 N.ar    1  UNL1       -0.2300
      4 C         142.9249  141.9283  168.1296 C.ar    1  UNL1        0.0984
      5 C         142.6574  142.4828  169.4974 C.ar    1  UNL1        0.0206
      6 C         142.1652  141.5801  170.5895 C.ar    1  UNL1        0.0016
      7 C         141.9405  140.1229  170.3138 C.ar    1  UNL1        0.0016
      8 C         142.2079  139.5684  168.9460 C.ar    1  UNL1        0.0188
      9 C         142.7001  140.4711  167.8539 C.ar    1  UNL1        0.0789
     10 C         143.9261  141.7102  164.3858 C.3     1  UNL1        0.1199
     11 C         145.3872  141.7249  164.0471 C.3     1  UNL1        0.0871
     12 N         145.8259  141.9260  162.6268 N.3     1  UNL1       -0.2957
     13 C         144.8033  142.1124  161.5453 C.3     1  UNL1        0.0804
     14 C         143.3422  142.0977  161.8841 C.3     1  UNL1        0.0750
     15 S         142.9036  141.8966  163.3044 S.3     1  UNL1       -0.1306
     16 H         146.3793  141.1083  162.3710 H       1  UNL1        0.1233
     17 C         142.9697  138.8883  165.7168 C.3     1  UNL1        0.1339
     18 C         139.4268  137.9259  163.1146 C.ar    1  UNL1        0.1387
     19 C         140.8138  137.6058  162.6415 C.ar    1  UNL1        0.0366
     20 C         141.9947  137.9266  163.5090 C.ar    1  UNL1        0.0007
     21 C         141.7887  138.5675  164.8495 C.ar    1  UNL1        0.0006
     22 C         140.4017  138.8876  165.3225 C.ar    1  UNL1        0.0007
     23 C         139.2208  138.5668  164.4550 C.ar    1  UNL1        0.0366
     24 C         137.5438  138.7007  161.5008 C.3     1  UNL1        0.2525
     25 O         138.2458  137.6051  162.2472 O.3     1  UNL1       -0.4714
@<TRIPOS>BOND
     1    24    25    1
     2    25    18    1
     3    18    19   ar
     4    19    20   ar
     5    20    21   ar
     6    21    17    1
     7    17     1    1
     8     1     2   ar
     9    10     2    1
    10    10    11    1
    11    11    12    1
    12    12    13    1
    13    13    14    1
    14    14    15    1
    15     2     3   ar
    16     3     4   ar
    17     4     5   ar
    18     5     6   ar
    19     6     7   ar
    20     7     8   ar
    21     8     9   ar
    22    21    22   ar
    23    22    23   ar
    24    23    18   ar
    25     9     1   ar
    26    15    10    1
    27     9     4   ar
    28    12    16    1
@<TRIPOS>MOLECULE
*****
 25 28 0 0 0
SMALL
GASTEIGER

@<TRIPOS>ATOM
      1 N         141.3347  141.6799  163.7688 N.ar    1  UNL1       -0.3100
      2 C         140.8782  140.8418  162.6115 C.ar    1  UNL1        0.1317
      3 N         139.4965  141.2869  162.2335 N.ar    1  UNL1       -0.2300
      4 C         139.0990  142.3999  163.1572 C.ar    1  UNL1        0.0984
      5 C         137.8495  143.2237  163.2568 C.ar    1  UNL1        0.0206
      6 C         137.7359  144.2903  164.3053 C.ar    1  UNL1        0.0016
      7 C         138.8720  144.5332  165.2541 C.ar    1  UNL1        0.0016
      8 C         140.1216  143.7095  165.1545 C.ar    1  UNL1        0.0188
      9 C         140.2351  142.6429  164.1060 C.ar    1  UNL1        0.0789
     10 C         141.6652  139.7504  161.9486 C.3     1  UNL1        0.1199
     11 C         141.4201  138.3178  162.3193 C.3     1  UNL1        0.0871
     12 N         142.2071  137.2264  161.6564 N.3     1  UNL1       -0.2957
     13 C         143.2392  137.5676  160.6229 C.3     1  UNL1        0.0804
     14 C         143.4843  139.0002  160.2522 C.3     1  UNL1        0.0750
     15 S         142.6973  140.0916  160.9151 S.3     1  UNL1       -0.1306
     16 H         141.5321  136.6087  161.2057 H       1  UNL1        0.1233
     17 C         142.6583  141.5737  164.4664 C.3     1  UNL1        0.1339
     18 C         142.8168  140.5878  168.8542 C.ar    1  UNL1        0.1387
     19 C         143.0222  142.0011  168.3951 C.ar    1  UNL1        0.0366
     20 C         142.9694  142.3296  166.9325 C.ar    1  UNL1        0.0007
     21 C         142.7111  141.2451  165.9289 C.ar    1  UNL1        0.0006
     22 C         142.5057  139.8319  166.3881 C.ar    1  UNL1        0.0007
     23 C         142.5585  139.5033  167.8507 C.ar    1  UNL1        0.0366
     24 C         141.9223  140.9259  171.2700 C.3     1  UNL1        0.2525
     25 O         142.8696  140.2593  170.3168 O.3     1  UNL1       -0.4714
@<TRIPOS>BOND
     1    24    25    1
     2    25    18    1
     3    18    19   ar
     4    19    20   ar
     5    20    21   ar
     6    21    17    1
     7    17     1    1
     8     1     2   ar
     9    10     2    1
    10    10    11    1
    11    11    12    1
    12    12    13    1
    13    13    14    1
    14    14    15    1
    15     2     3   ar
    16     3     4   ar
    17     4     5   ar
    18     5     6   ar
    19     6     7   ar
    20     7     8   ar
    21     8     9   ar
    22    21    22   ar
    23    22    23   ar
    24    23    18   ar
    25     9     1   ar
    26    15    10    1
    27     9     4   ar
    28    12    16    1
@<TRIPOS>MOLECULE
*****
 25 28 0 0 0
SMALL
GASTEIGER

@<TRIPOS>ATOM
      1 N         140.0916  141.2588  166.1652 N.ar    1  UNL1       -0.3100
      2 C         141.1159  140.6886  167.1010 C.ar    1  UNL1        0.1317
      3 N         141.3553  139.2600  166.7113 N.ar    1  UNL1       -0.2300
      4 C         140.4790  138.9473  165.5347 C.ar    1  UNL1        0.0984
      5 C         140.2914  137.6973  164.7271 C.ar    1  UNL1        0.0206
      6 C         139.3227  137.6827  163.5820 C.ar    1  UNL1        0.0016
      7 C         138.5416  138.9180  163.2445 C.ar    1  UNL1        0.0016
      8 C         138.7293  140.1680  164.0521 C.ar    1  UNL1        0.0188
      9 C         139.6980  140.1826  165.1972 C.ar    1  UNL1        0.0789
     10 C         141.7836  141.4187  168.2284 C.3     1  UNL1        0.1199
     11 C         143.1290  142.0488  168.0215 C.3     1  UNL1        0.0871
     12 N         143.7966  142.7789  169.1489 N.3     1  UNL1       -0.2957
     13 C         143.1188  142.8791  170.4833 C.3     1  UNL1        0.0804
     14 C         141.7734  142.2490  170.6902 C.3     1  UNL1        0.0750
     15 S         141.1058  141.5189  169.5628 S.3     1  UNL1       -0.1306
     16 H         143.9567  143.7337  168.8276 H       1  UNL1        0.1233
     17 C         139.5551  142.6593  166.1926 C.3     1  UNL1        0.1339
     18 C         139.4096  145.0876  162.4068 C.ar    1  UNL1        0.1387
     19 C         140.7304  144.7640  163.0400 C.ar    1  UNL1        0.0366
     20 C         140.7789  143.9546  164.3019 C.ar    1  UNL1        0.0007
     21 C         139.5066  143.4687  164.9307 C.ar    1  UNL1        0.0006
     22 C         138.1859  143.7923  164.2975 C.ar    1  UNL1        0.0007
     23 C         138.1374  144.6018  163.0356 C.ar    1  UNL1        0.0366
     24 C         140.3714  145.6590  160.0619 C.3     1  UNL1        0.2525
     25 O         139.3612  145.8970  161.1449 O.3     1  UNL1       -0.4714
@<TRIPOS>BOND
     1    24    25    1
     2    25    18    1
     3    18    19   ar
     4    19    20   ar
     5    20    21   ar
     6    21    17    1
     7    17     1    1
     8     1     2   ar
     9    10     2    1
    10    10    11    1
    11    11    12    1
    12    12    13    1
    13    13    14    1
    14    14    15    1
    15     2     3   ar
    16     3     4   ar
    17     4     5   ar
    18     5     6   ar
    19     6     7   ar
    20     7     8   ar
    21     8     9   ar
    22    21    22   ar
    23    22    23   ar
    24    23    18   ar
    25     9     1   ar
    26    15    10    1
    27     9     4   ar
    28    12    16    1
@<TRIPOS>MOLECULE
*****
 25 28 0 0 0
SMALL
GASTEIGER

@<TRIPOS>ATOM
      1 N         141.0814  140.4445  166.3861 N.ar    1  UNL1       -0.3100
      2 C         142.5569  140.6791  166.5196 C.ar    1  UNL1        0.1317
      3 N         142.8954  140.6814  167.9809 N.ar    1  UNL1       -0.2300
      4 C         141.6291  140.4482  168.7505 C.ar    1  UNL1        0.0984
      5 C         141.3521  140.3503  170.2214 C.ar    1  UNL1        0.0206
      6 C         139.9540  140.1060  170.7066 C.ar    1  UNL1        0.0016
      7 C         138.8328  139.9595  169.7209 C.ar    1  UNL1        0.0016
      8 C         139.1098  140.0574  168.2500 C.ar    1  UNL1        0.0188
      9 C         140.5080  140.3018  167.7648 C.ar    1  UNL1        0.0789
     10 C         143.5241  140.8767  165.3902 C.3     1  UNL1        0.1199
     11 C         144.0439  139.6915  164.6319 C.3     1  UNL1        0.0871
     12 N         145.0110  139.8891  163.5025 N.3     1  UNL1       -0.2957
     13 C         145.4584  141.2719  163.1315 C.3     1  UNL1        0.0804
     14 C         144.9386  142.4571  163.8898 C.3     1  UNL1        0.0750
     15 S         143.9714  142.2595  165.0192 S.3     1  UNL1       -0.1306
     16 H         144.5790  139.4864  162.6710 H       1  UNL1        0.1233
     17 C         140.3140  140.3662  165.0996 C.3     1  UNL1        0.1339
     18 C         139.0092  144.1401  163.0247 C.ar    1  UNL1        0.1387
     19 C         138.1518  143.5404  164.0997 C.ar    1  UNL1        0.0366
     20 C         138.5868  142.2825  164.7913 C.ar    1  UNL1        0.0007
     21 C         139.8791  141.6241  164.4080 C.ar    1  UNL1        0.0006
     22 C         140.7363  142.2239  163.3331 C.ar    1  UNL1        0.0007
     23 C         140.3013  143.4819  162.6415 C.ar    1  UNL1        0.0366
     24 C         139.5927  146.2878  161.6840 C.3     1  UNL1        0.2525
     25 O         138.5742  145.3981  162.3332 O.3     1  UNL1       -0.4714
@<TRIPOS>BOND
     1    24    25    1
     2    25    18    1
     3    18    19   ar
     4    19    20   ar
     5    20    21   ar
     6    21    17    1
     7    17     1    1
     8     1     2   ar
     9    10     2    1
    10    10    11    1
    11    11    12    1
    12    12    13    1
    13    13    14    1
    14    14    15    1
    15     2     3   ar
    16     3     4   ar
    17     4     5   ar
    18     5     6   ar
    19     6     7   ar
    20     7     8   ar
    21     8     9   ar
    22    21    22   ar
    23    22    23   ar
    24    23    18   ar
    25     9     1   ar
    26    15    10    1
    27     9     4   ar
    28    12    16    1
@<TRIPOS>MOLECULE
*****
 25 28 0 0 0
SMALL
GASTEIGER

@<TRIPOS>ATOM
      1 N         142.1515  142.5072  165.8641 N.ar    1  UNL1       -0.3100
      2 C         141.4672  142.3175  167.1854 C.ar    1  UNL1        0.1317
      3 N         140.1475  143.0283  167.1300 N.ar    1  UNL1       -0.2300
      4 C         140.0161  143.6572  165.7746 C.ar    1  UNL1        0.0984
      5 C         138.9287  144.4815  165.1517 C.ar    1  UNL1        0.0206
      6 C         139.0799  144.9838  163.7465 C.ar    1  UNL1        0.0016
      7 C         140.3185  144.6618  162.9641 C.ar    1  UNL1        0.0016
      8 C         141.4059  143.8375  163.5869 C.ar    1  UNL1        0.0188
      9 C         141.2547  143.3352  164.9922 C.ar    1  UNL1        0.0789
     10 C         142.0078  141.5516  168.3563 C.3     1  UNL1        0.1199
     11 C         143.0706  142.1585  169.2234 C.3     1  UNL1        0.0871
     12 N         143.6112  141.3926  170.3944 N.3     1  UNL1       -0.2957
     13 C         143.0889  140.0198  170.6983 C.3     1  UNL1        0.0804
     14 C         142.0260  139.4128  169.8312 C.3     1  UNL1        0.0750
     15 S         141.4855  140.1787  168.6602 S.3     1  UNL1       -0.1306
     16 H         143.4408  141.9625  171.2230 H       1  UNL1        0.1233
     17 C         143.4966  141.9643  165.4818 C.3     1  UNL1        0.1339
     18 C         143.8162  138.7325  162.3668 C.ar    1  UNL1        0.1387
     19 C         143.0595  138.4779  163.6368 C.ar    1  UNL1        0.0366
     20 C         142.9529  139.5552  164.6751 C.ar    1  UNL1        0.0007
     21 C         143.6031  140.8871  164.4435 C.ar    1  UNL1        0.0006
     22 C         144.3598  141.1416  163.1736 C.ar    1  UNL1        0.0007
     23 C         144.4663  140.0643  162.1353 C.ar    1  UNL1        0.0366
     24 C         143.0422  137.6937  160.1147 C.3     1  UNL1        0.2525
     25 O         143.9227  137.6552  161.3285 O.3     1  UNL1       -0.4714
@<TRIPOS>BOND
     1    24    25    1
     2    25    18    1
     3    18    19   ar
     4    19    20   ar
     5    20    21   ar
     6    21    17    1
     7    17     1    1
     8     1     2   ar
     9    10     2    1
    10    10    11    1
    11    11    12    1
    12    12    13    1
    13    13    14    1
    14    14    15    1
    15     2     3   ar
    16     3     4   ar
    17     4     5   ar
    18     5     6   ar
    19     6     7   ar
    20     7     8   ar
    21     8     9   ar
    22    21    22   ar
    23    22    23   ar
    24    23    18   ar
    25     9     1   ar
    26    15    10    1
    27     9     4   ar
    28    12    16    1
@<TRIPOS>MOLECULE
*****
 25 28 0 0 0
SMALL
GASTEIGER

@<TRIPOS>ATOM
      1 N         142.3214  140.6653  166.1123 N.ar    1  UNL1       -0.3100
      2 C         142.5644  141.7657  167.1021 C.ar    1  UNL1        0.1317
      3 N         143.6721  142.6282  166.5737 N.ar    1  UNL1       -0.2300
      4 C         144.1137  142.0607  165.2573 C.ar    1  UNL1        0.0984
      5 C         145.1681  142.4919  164.2814 C.ar    1  UNL1        0.0206
      6 C         145.3876  141.7100  163.0204 C.ar    1  UNL1        0.0016
      7 C         144.5528  140.4968  162.7352 C.ar    1  UNL1        0.0016
      8 C         143.4984  140.0656  163.7110 C.ar    1  UNL1        0.0188
      9 C         143.2789  140.8475  164.9721 C.ar    1  UNL1        0.0789
     10 C         141.8289  141.9682  168.3937 C.3     1  UNL1        0.1199
     11 C         140.6657  142.9133  168.4541 C.3     1  UNL1        0.0871
     12 N         139.9302  143.1158  169.7456 N.3     1  UNL1       -0.2957
     13 C         140.3579  142.3732  170.9767 C.3     1  UNL1        0.0804
     14 C         141.5211  141.4282  170.9163 C.3     1  UNL1        0.0750
     15 S         142.2566  141.2257  169.6247 S.3     1  UNL1       -0.1306
     16 H         138.9570  142.8637  169.5729 H       1  UNL1        0.1233
     17 C         141.3002  139.5741  166.2401 C.3     1  UNL1        0.1339
     18 C         138.4281  138.7739  162.8695 C.ar    1  UNL1        0.1387
     19 C         139.2694  137.6599  163.4184 C.ar    1  UNL1        0.0366
     20 C         140.2267  137.9266  164.5419 C.ar    1  UNL1        0.0007
     21 C         140.3428  139.3074  165.1166 C.ar    1  UNL1        0.0006
     22 C         139.5015  140.4213  164.5677 C.ar    1  UNL1        0.0007
     23 C         138.5442  140.1545  163.4441 C.ar    1  UNL1        0.0366
     24 C         137.2842  139.5266  160.6615 C.3     1  UNL1        0.2525
     25 O         137.4708  138.5071  161.7460 O.3     1  UNL1       -0.4714
@<TRIPOS>BOND
     1    24    25    1
     2    25    18    1
     3    18    19   ar
     4    19    20   ar
     5    20    21   ar
     6    21    17    1
     7    17     1    1
     8     1     2   ar
     9    10     2    1
    10    10    11    1
    11    11    12    1
    12    12    13    1
    13    13    14    1
    14    14    15    1
    15     2     3   ar
    16     3     4   ar
    17     4     5   ar
    18     5     6   ar
    19     6     7   ar
    20     7     8   ar
    21     8     9   ar
    22    21    22   ar
    23    22    23   ar
    24    23    18   ar
    25     9     1   ar
    26    15    10    1
    27     9     4   ar
    28    12    16    1
@<TRIPOS>MOLECULE
*****
 25 28 0 0 0
SMALL
GASTEIGER

@<TRIPOS>ATOM
      1 N         140.7399  141.4808  163.8412 N.ar    1  UNL1       -0.3100
      2 C         139.8322  142.0194  162.7754 C.ar    1  UNL1        0.1317
      3 N         138.9107  140.9150  162.3498 N.ar    1  UNL1       -0.2300
      4 C         139.2489  139.6939  163.1526 C.ar    1  UNL1        0.0984
      5 C         138.6735  138.3087  163.1634 C.ar    1  UNL1        0.0206
      6 C         139.2286  137.2732  164.0959 C.ar    1  UNL1        0.0016
      7 C         140.3592  137.6229  165.0176 C.ar    1  UNL1        0.0016
      8 C         140.9346  139.0081  165.0068 C.ar    1  UNL1        0.0188
      9 C         140.3795  140.0436  164.0743 C.ar    1  UNL1        0.0789
     10 C         139.8439  143.4170  162.2308 C.3     1  UNL1        0.1199
     11 C         138.7979  144.4002  162.6657 C.3     1  UNL1        0.0871
     12 N         138.8096  145.7978  162.1211 N.3     1  UNL1       -0.2957
     13 C         139.8673  146.2122  161.1415 C.3     1  UNL1        0.0804
     14 C         140.9132  145.2290  160.7066 C.3     1  UNL1        0.0750
     15 S         140.9015  143.8314  161.2512 S.3     1  UNL1       -0.1306
     16 H         138.8877  146.4251  162.9216 H       1  UNL1        0.1233
     17 C         141.8188  142.2453  164.5495 C.3     1  UNL1        0.1339
     18 C         141.7073  142.6681  169.0282 C.ar    1  UNL1        0.1387
     19 C         140.4681  142.9169  168.2203 C.ar    1  UNL1        0.0366
     20 C         140.5053  142.7759  166.7274 C.ar    1  UNL1        0.0007
     21 C         141.7816  142.3862  166.0423 C.ar    1  UNL1        0.0006
     22 C         143.0207  142.1375  166.8503 C.ar    1  UNL1        0.0007
     23 C         142.9835  142.2785  168.3431 C.ar    1  UNL1        0.0366
     24 C         141.4428  141.6025  171.3829 C.3     1  UNL1        0.2525
     25 O         141.6700  142.8091  170.5210 O.3     1  UNL1       -0.4714
@<TRIPOS>BOND
     1    24    25    1
     2    25    18    1
     3    18    19   ar
     4    19    20   ar
     5    20    21   ar
     6    21    17    1
     7    17     1    1
     8     1     2   ar
     9    10     2    1
    10    10    11    1
    11    11    12    1
    12    12    13    1
    13    13    14    1
    14    14    15    1
    15     2     3   ar
    16     3     4   ar
    17     4     5   ar
    18     5     6   ar
    19     6     7   ar
    20     7     8   ar
    21     8     9   ar
    22    21    22   ar
    23    22    23   ar
    24    23    18   ar
    25     9     1   ar
    26    15    10    1
    27     9     4   ar
    28    12    16    1
