@<TRIPOS>MOLECULE
*****
 40 43 0 0 0
SMALL
GASTEIGER

@<TRIPOS>ATOM
      1 C         142.6803  141.5591  166.6750 C.ar    1  UNL1        0.0476
      2 C         143.2581  142.4980  167.6923 C.ar    1  UNL1        0.0141
      3 C         143.3452  142.0835  169.1313 C.ar    1  UNL1       -0.0006
      4 C         142.8545  140.7302  169.5530 C.ar    1  UNL1        0.0068
      5 C         142.2768  139.7914  168.5358 C.ar    1  UNL1       -0.0036
      6 C         142.1896  140.2058  167.0968 C.ar    1  UNL1        0.0071
      7 C         141.4368  142.8040  164.7636 C.2     1  UNL1        0.2386
      8 O         140.3677  143.2199  165.7299 O.2     1  UNL1       -0.2739
      9 N         142.5931  141.9736  165.2361 N.am    1  UNL1       -0.2835
     10 H         143.2949  141.7006  164.6019 H       1  UNL1        0.1549
     11 C         141.0883  144.4621  159.0077 C.ar    1  UNL1        0.0624
     12 C         139.9714  143.9514  158.1464 C.ar    1  UNL1        0.0452
     13 C         138.9418  143.0262  158.7241 C.ar    1  UNL1        0.1414
     14 F         137.8249  142.5154  157.8627 F       1  UNL1       -0.2041
     15 C         139.0289  142.6116  160.1630 C.ar    1  UNL1        0.0307
     16 C         140.1457  143.1223  161.0243 C.ar    1  UNL1        0.0155
     17 C         140.2329  142.7078  162.4633 C.2     1  UNL1       -0.0068
     18 C         141.3497  143.2185  163.3246 C.3     1  UNL1        0.1768
     19 C         142.3794  144.1438  162.7469 C.2     1  UNL1        0.2581
     20 O         143.4962  144.6545  163.6083 O.2     1  UNL1       -0.2721
     21 N         142.2922  144.5583  161.3080 N.am    1  UNL1       -0.1773
     22 C         141.1754  144.0476  160.4466 C.ar    1  UNL1        0.0862
     23 C         141.9698  145.8909  157.0250 C.3     1  UNL1        0.1086
     24 N         142.1179  145.3874  158.4301 N.pl3   1  UNL1       -0.3302
     25 H         142.8910  145.6642  158.9732 H       1  UNL1        0.1469
     26 C         142.9417  140.3157  170.9919 C.3     1  UNL1        0.1636
     27 O         144.1029  139.4933  171.4666 O.3     1  UNL1       -0.3772
     28 H         144.0728  138.6191  171.0474 H       1  UNL1        0.2109
     29 C         141.6118  139.2670  166.0796 C.3     1  UNL1        0.1004
     30 N         140.2741  139.5568  165.4660 N.3     1  UNL1       -0.2681
     31 C         140.0641  139.3542  163.9947 C.3     1  UNL1        0.0579
     32 C         138.6737  139.3258  163.4324 C.3     1  UNL1        0.0160
     33 C         138.4637  139.1232  161.9611 C.3     1  UNL1        0.0014
     34 C         139.6440  138.9491  161.0520 C.3     1  UNL1        0.0001
     35 C         141.0343  138.9776  161.6142 C.3     1  UNL1        0.0014
     36 C         141.2444  139.1802  163.0856 C.3     1  UNL1        0.0160
     37 C         139.1464  140.0491  166.3238 C.3     1  UNL1        0.1044
     38 C         138.5109  139.1319  167.3262 C.3     1  UNL1        0.1544
     39 O         137.2632  138.3797  166.9692 O.3     1  UNL1       -0.3805
     40 H         136.5344  139.0061  166.8375 H       1  UNL1        0.2105
@<TRIPOS>BOND
     1    23    24    1
     2    24    11    1
     3    11    12   ar
     4    12    13   ar
     5    13    14    1
     6    13    15   ar
     7    15    16   ar
     8    16    17    2
     9    17    18    1
    10    18     7    1
    11     7     8    2
    12     7     9   am
    13     9     1    1
    14     1     2   ar
    15     2     3   ar
    16     3     4   ar
    17     4    26    1
    18    26    27    1
    19     4     5   ar
    20     5     6   ar
    21     6    29    1
    22    29    30    1
    23    30    37    1
    24    37    38    1
    25    38    39    1
    26    30    31    1
    27    31    32    1
    28    32    33    1
    29    33    34    1
    30    34    35    1
    31    35    36    1
    32    18    19    1
    33    19    20    2
    34    19    21    1
    35    21    22    2
    36    22    11   ar
    37    22    16   ar
    38     6     1   ar
    39    36    31    1
    40    24    25    1
    41     9    10    1
    42    27    28    1
    43    39    40    1
@<TRIPOS>MOLECULE
*****
 40 43 0 0 0
SMALL
GASTEIGER

@<TRIPOS>ATOM
      1 C         140.3992  142.2557  166.8012 C.ar    1  UNL1        0.0476
      2 C         140.3137  143.2722  167.9010 C.ar    1  UNL1        0.0141
      3 C         140.3805  142.8341  169.3340 C.ar    1  UNL1       -0.0006
      4 C         140.5327  141.3796  169.6673 C.ar    1  UNL1        0.0068
      5 C         140.6181  140.3631  168.5677 C.ar    1  UNL1       -0.0036
      6 C         140.5514  140.8011  167.1345 C.ar    1  UNL1        0.0071
      7 C         141.5883  143.0720  164.6403 C.2     1  UNL1        0.2386
      8 O         142.9108  143.0122  165.3455 O.2     1  UNL1       -0.2739
      9 N         140.3325  142.6937  165.3682 N.am    1  UNL1       -0.2835
     10 H         139.4644  142.7330  164.9053 H       1  UNL1        0.1549
     11 C         141.3214  144.8244  158.9081 C.ar    1  UNL1        0.0624
     12 C         142.3323  144.3194  157.9217 C.ar    1  UNL1        0.0452
     13 C         143.4099  143.3764  158.3683 C.ar    1  UNL1        0.1414
     14 F         144.4208  142.8714  157.3817 F       1  UNL1       -0.2041
     15 C         143.4767  142.9383  159.8013 C.ar    1  UNL1        0.0307
     16 C         142.4658  143.4432  160.7877 C.ar    1  UNL1        0.0155
     17 C         142.5325  143.0051  162.2208 C.2     1  UNL1       -0.0068
     18 C         141.5216  143.5101  163.2072 C.3     1  UNL1        0.1768
     19 C         140.4440  144.4531  162.7607 C.2     1  UNL1        0.2581
     20 O         139.4331  144.9581  163.7472 O.2     1  UNL1       -0.2721
     21 N         140.3773  144.8912  161.3276 N.am    1  UNL1       -0.1773
     22 C         141.3882  144.3863  160.3411 C.ar    1  UNL1        0.0862
     23 C         140.1624  146.1864  157.0236 C.3     1  UNL1        0.1086
     24 N         140.2438  145.7674  158.4615 N.pl3   1  UNL1       -0.3302
     25 H         139.5900  146.1114  159.1122 H       1  UNL1        0.1469
     26 C         140.5994  140.9415  171.1004 C.3     1  UNL1        0.1636
     27 O         140.5667  141.9624  172.1990 O.3     1  UNL1       -0.3772
     28 H         141.3684  142.5070  172.1583 H       1  UNL1        0.2109
     29 C         140.6368  139.7846  166.0348 C.3     1  UNL1        0.1004
     30 N         139.4086  139.4171  165.2561 N.3     1  UNL1       -0.2681
     31 C         139.0859  140.1373  163.9805 C.3     1  UNL1        0.0579
     32 C         140.0150  140.0374  162.8071 C.3     1  UNL1        0.0160
     33 C         139.6923  140.7576  161.5315 C.3     1  UNL1        0.0014
     34 C         138.4405  141.5777  161.4293 C.3     1  UNL1        0.0001
     35 C         137.5114  141.6776  162.6027 C.3     1  UNL1        0.0014
     36 C         137.8341  140.9574  163.8783 C.3     1  UNL1        0.0160
     37 C         138.5031  138.3294  165.7529 C.3     1  UNL1        0.1044
     38 C         137.6664  138.5512  166.9780 C.3     1  UNL1        0.1544
     39 O         136.7529  137.4673  167.4687 O.3     1  UNL1       -0.3805
     40 H         136.0502  137.3171  166.8171 H       1  UNL1        0.2105
@<TRIPOS>BOND
     1    23    24    1
     2    24    11    1
     3    11    12   ar
     4    12    13   ar
     5    13    14    1
     6    13    15   ar
     7    15    16   ar
     8    16    17    2
     9    17    18    1
    10    18     7    1
    11     7     8    2
    12     7     9   am
    13     9     1    1
    14     1     2   ar
    15     2     3   ar
    16     3     4   ar
    17     4    26    1
    18    26    27    1
    19     4     5   ar
    20     5     6   ar
    21     6    29    1
    22    29    30    1
    23    30    37    1
    24    37    38    1
    25    38    39    1
    26    30    31    1
    27    31    32    1
    28    32    33    1
    29    33    34    1
    30    34    35    1
    31    35    36    1
    32    18    19    1
    33    19    20    2
    34    19    21    1
    35    21    22    2
    36    22    11   ar
    37    22    16   ar
    38     6     1   ar
    39    36    31    1
    40    24    25    1
    41     9    10    1
    42    27    28    1
    43    39    40    1
@<TRIPOS>MOLECULE
*****
 40 43 0 0 0
SMALL
GASTEIGER

@<TRIPOS>ATOM
      1 C         140.7301  141.8303  166.6736 C.ar    1  UNL1        0.0476
      2 C         140.6471  142.8681  167.7536 C.ar    1  UNL1        0.0141
      3 C         140.5636  142.4491  169.1914 C.ar    1  UNL1       -0.0006
      4 C         140.5632  140.9925  169.5494 C.ar    1  UNL1        0.0068
      5 C         140.6463  139.9547  168.4695 C.ar    1  UNL1       -0.0036
      6 C         140.7297  140.3737  167.0315 C.ar    1  UNL1        0.0071
      7 C         139.5583  142.4741  164.4460 C.2     1  UNL1        0.2386
      8 O         138.2195  142.2798  165.0942 O.2     1  UNL1       -0.2739
      9 N         140.8136  142.2493  165.2357 N.am    1  UNL1       -0.2835
     10 H         141.6922  142.3768  164.8103 H       1  UNL1        0.1549
     11 C         139.8919  144.1500  158.6945 C.ar    1  UNL1        0.0624
     12 C         139.2649  143.3013  157.6284 C.ar    1  UNL1        0.0452
     13 C         138.5546  142.0336  158.0002 C.ar    1  UNL1        0.1414
     14 F         137.9276  141.1848  156.9340 F       1  UNL1       -0.2041
     15 C         138.4712  141.6146  159.4380 C.ar    1  UNL1        0.0307
     16 C         139.0981  142.4633  160.5041 C.ar    1  UNL1        0.0155
     17 C         139.0147  142.0443  161.9420 C.2     1  UNL1       -0.0068
     18 C         139.6417  142.8930  163.0081 C.3     1  UNL1        0.1768
     19 C         140.3520  144.1608  162.6363 C.2     1  UNL1        0.2581
     20 O         140.9790  145.0095  163.7025 O.2     1  UNL1       -0.2721
     21 N         140.4354  144.5798  161.1985 N.am    1  UNL1       -0.1773
     22 C         139.8085  143.7310  160.1323 C.ar    1  UNL1        0.0862
     23 C         142.0210  145.3682  157.8385 C.3     1  UNL1        0.1086
     24 N         140.6022  145.4178  158.3227 N.pl3   1  UNL1       -0.3302
     25 H         140.1373  146.2824  158.3965 H       1  UNL1        0.1469
     26 C         140.4798  140.5735  170.9872 C.3     1  UNL1        0.1636
     27 O         139.6729  139.3689  171.3718 O.3     1  UNL1       -0.3772
     28 H         138.7340  139.5396  171.1978 H       1  UNL1        0.2109
     29 C         140.8128  139.3360  165.9516 C.3     1  UNL1        0.1004
     30 N         139.5975  139.0003  165.1389 N.3     1  UNL1       -0.2681
     31 C         139.7139  138.8225  163.6541 C.3     1  UNL1        0.0579
     32 C         138.5216  138.3864  162.8552 C.3     1  UNL1        0.0160
     33 C         138.6379  138.2086  161.3704 C.3     1  UNL1        0.0014
     34 C         139.9466  138.4669  160.6843 C.3     1  UNL1        0.0001
     35 C         141.1389  138.9031  161.4831 C.3     1  UNL1        0.0014
     36 C         141.0226  139.0809  162.9680 C.3     1  UNL1        0.0160
     37 C         138.2659  138.8425  165.8111 C.3     1  UNL1        0.1044
     38 C         137.9497  137.5835  166.5627 C.3     1  UNL1        0.1544
     39 O         136.7263  137.5137  167.4279 O.3     1  UNL1       -0.3805
     40 H         136.8216  138.1278  168.1727 H       1  UNL1        0.2105
@<TRIPOS>BOND
     1    23    24    1
     2    24    11    1
     3    11    12   ar
     4    12    13   ar
     5    13    14    1
     6    13    15   ar
     7    15    16   ar
     8    16    17    2
     9    17    18    1
    10    18     7    1
    11     7     8    2
    12     7     9   am
    13     9     1    1
    14     1     2   ar
    15     2     3   ar
    16     3     4   ar
    17     4    26    1
    18    26    27    1
    19     4     5   ar
    20     5     6   ar
    21     6    29    1
    22    29    30    1
    23    30    37    1
    24    37    38    1
    25    38    39    1
    26    30    31    1
    27    31    32    1
    28    32    33    1
    29    33    34    1
    30    34    35    1
    31    35    36    1
    32    18    19    1
    33    19    20    2
    34    19    21    1
    35    21    22    2
    36    22    11   ar
    37    22    16   ar
    38     6     1   ar
    39    36    31    1
    40    24    25    1
    41     9    10    1
    42    27    28    1
    43    39    40    1
@<TRIPOS>MOLECULE
*****
 40 43 0 0 0
SMALL
GASTEIGER

@<TRIPOS>ATOM
      1 C         142.0437  142.5801  165.4395 C.ar    1  UNL1        0.0476
      2 C         143.2928  142.4427  166.2586 C.ar    1  UNL1        0.0141
      3 C         143.2070  142.3993  167.7555 C.ar    1  UNL1       -0.0006
      4 C         141.8722  142.4932  168.4333 C.ar    1  UNL1        0.0068
      5 C         140.6231  142.6306  167.6142 C.ar    1  UNL1       -0.0036
      6 C         140.7088  142.6740  166.1173 C.ar    1  UNL1        0.0071
      7 C         142.1831  143.9437  163.2325 C.2     1  UNL1        0.2386
      8 O         142.1511  145.2204  164.0192 O.2     1  UNL1       -0.2739
      9 N         142.1294  142.6235  163.9426 N.am    1  UNL1       -0.2835
     10 H         142.1505  141.7856  163.4262 H       1  UNL1        0.1549
     11 C         142.5263  144.1176  157.2448 C.ar    1  UNL1        0.0624
     12 C         141.5171  144.9002  156.4581 C.ar    1  UNL1        0.0452
     13 C         140.4220  145.6394  157.1684 C.ar    1  UNL1        0.1414
     14 F         139.4127  146.4220  156.3817 F       1  UNL1       -0.2041
     15 C         140.3362  145.5959  158.6653 C.ar    1  UNL1        0.0307
     16 C         141.3454  144.8133  159.4519 C.ar    1  UNL1        0.0155
     17 C         141.2597  144.7698  160.9489 C.2     1  UNL1       -0.0068
     18 C         142.2689  143.9872  161.7355 C.3     1  UNL1        0.1768
     19 C         143.3640  143.2480  161.0253 C.2     1  UNL1        0.2581
     20 O         144.3733  142.4653  161.8120 O.2     1  UNL1       -0.2721
     21 N         143.4498  143.2914  159.5284 N.am    1  UNL1       -0.1773
     22 C         142.4405  144.0741  158.7417 C.ar    1  UNL1        0.0862
     23 C         143.6995  143.4111  155.0370 C.3     1  UNL1        0.1086
     24 N         143.6214  143.3784  156.5345 N.pl3   1  UNL1       -0.3302
     25 H         144.2889  142.8718  157.0513 H       1  UNL1        0.1469
     26 C         141.7864  142.4498  169.9302 C.3     1  UNL1        0.1636
     27 O         142.6361  143.3686  170.7571 O.3     1  UNL1       -0.3772
     28 H         143.5708  143.1364  170.6413 H       1  UNL1        0.2109
     29 C         139.4598  142.8114  165.2982 C.3     1  UNL1        0.1004
     30 N         139.1326  141.7875  164.2520 N.3     1  UNL1       -0.2681
     31 C         139.0420  140.3373  164.6242 C.3     1  UNL1        0.0579
     32 C         139.7675  139.3072  163.8101 C.3     1  UNL1        0.0160
     33 C         139.6769  137.8570  164.1823 C.3     1  UNL1        0.0014
     34 C         138.8609  137.4368  165.3688 C.3     1  UNL1        0.0001
     35 C         138.1355  138.4668  166.1829 C.3     1  UNL1        0.0014
     36 C         138.2261  139.9171  165.8106 C.3     1  UNL1        0.0160
     37 C         138.8959  142.2138  162.8335 C.3     1  UNL1        0.1044
     38 C         137.6286  142.9274  162.4663 C.3     1  UNL1        0.1544
     39 O         137.5642  144.4245  162.5340 O.3     1  UNL1       -0.3805
     40 H         137.6499  144.7104  163.4569 H       1  UNL1        0.2105
@<TRIPOS>BOND
     1    23    24    1
     2    24    11    1
     3    11    12   ar
     4    12    13   ar
     5    13    14    1
     6    13    15   ar
     7    15    16   ar
     8    16    17    2
     9    17    18    1
    10    18     7    1
    11     7     8    2
    12     7     9   am
    13     9     1    1
    14     1     2   ar
    15     2     3   ar
    16     3     4   ar
    17     4    26    1
    18    26    27    1
    19     4     5   ar
    20     5     6   ar
    21     6    29    1
    22    29    30    1
    23    30    37    1
    24    37    38    1
    25    38    39    1
    26    30    31    1
    27    31    32    1
    28    32    33    1
    29    33    34    1
    30    34    35    1
    31    35    36    1
    32    18    19    1
    33    19    20    2
    34    19    21    1
    35    21    22    2
    36    22    11   ar
    37    22    16   ar
    38     6     1   ar
    39    36    31    1
    40    24    25    1
    41     9    10    1
    42    27    28    1
    43    39    40    1
@<TRIPOS>MOLECULE
*****
 40 43 0 0 0
SMALL
GASTEIGER

@<TRIPOS>ATOM
      1 C         142.5682  141.3799  166.5014 C.ar    1  UNL1        0.0476
      2 C         143.0248  142.3628  167.5385 C.ar    1  UNL1        0.0141
      3 C         143.1035  141.9512  168.9788 C.ar    1  UNL1       -0.0006
      4 C         142.7256  140.5567  169.3820 C.ar    1  UNL1        0.0068
      5 C         142.2689  139.5739  168.3450 C.ar    1  UNL1       -0.0036
      6 C         142.1902  139.9855  166.9046 C.ar    1  UNL1        0.0071
      7 C         143.6283  141.4916  164.1322 C.2     1  UNL1        0.2386
      8 O         144.8458  140.7800  164.6434 O.2     1  UNL1       -0.2739
      9 N         142.4895  141.7916  165.0612 N.am    1  UNL1       -0.2835
     10 H         141.6904  142.2586  164.7256 H       1  UNL1        0.1549
     11 C         143.3137  143.1381  158.3711 C.ar    1  UNL1        0.0624
     12 C         143.5349  142.1241  157.2881 C.ar    1  UNL1        0.0452
     13 C         143.8347  140.6985  157.6454 C.ar    1  UNL1        0.1414
     14 F         144.0559  139.6845  156.5623 F       1  UNL1       -0.2041
     15 C         143.9134  140.2869  159.0856 C.ar    1  UNL1        0.0307
     16 C         143.6922  141.3009  160.1686 C.ar    1  UNL1        0.0155
     17 C         143.7708  140.8892  161.6089 C.2     1  UNL1       -0.0068
     18 C         143.5496  141.9032  162.6919 C.3     1  UNL1        0.1768
     19 C         143.2498  143.3289  162.3346 C.2     1  UNL1        0.2581
     20 O         143.0286  144.3429  163.4176 O.2     1  UNL1       -0.2721
     21 N         143.1712  143.7405  160.8943 N.am    1  UNL1       -0.1773
     22 C         143.3923  142.7265  159.8113 C.ar    1  UNL1        0.0862
     23 C         141.5912  145.0233  157.8926 C.3     1  UNL1        0.1086
     24 N         143.0139  144.5638  158.0138 N.pl3   1  UNL1       -0.3302
     25 H         143.7508  145.1979  157.8589 H       1  UNL1        0.1469
     26 C         142.8042  140.1451  170.8222 C.3     1  UNL1        0.1636
     27 O         144.0305  139.4522  171.3383 O.3     1  UNL1       -0.3772
     28 H         144.1123  138.5827  170.9163 H       1  UNL1        0.2109
     29 C         141.7336  139.0026  165.8676 C.3     1  UNL1        0.1004
     30 N         140.5939  139.3492  164.9561 N.3     1  UNL1       -0.2681
     31 C         140.7198  139.1232  163.4786 C.3     1  UNL1        0.0579
     32 C         139.9535  139.9856  162.5199 C.3     1  UNL1        0.0160
     33 C         140.0793  139.7596  161.0424 C.3     1  UNL1        0.0014
     34 C         140.9715  138.6711  160.5235 C.3     1  UNL1        0.0001
     35 C         141.7378  137.8087  161.4821 C.3     1  UNL1        0.0014
     36 C         141.6120  138.0347  162.9597 C.3     1  UNL1        0.0160
     37 C         139.3284  139.9219  165.5220 C.3     1  UNL1        0.1044
     38 C         138.4169  139.0598  166.3442 C.3     1  UNL1        0.1544
     39 O         138.4669  139.1303  167.8418 O.3     1  UNL1       -0.3805
     40 H         139.3250  138.8019  168.1525 H       1  UNL1        0.2105
@<TRIPOS>BOND
     1    23    24    1
     2    24    11    1
     3    11    12   ar
     4    12    13   ar
     5    13    14    1
     6    13    15   ar
     7    15    16   ar
     8    16    17    2
     9    17    18    1
    10    18     7    1
    11     7     8    2
    12     7     9   am
    13     9     1    1
    14     1     2   ar
    15     2     3   ar
    16     3     4   ar
    17     4    26    1
    18    26    27    1
    19     4     5   ar
    20     5     6   ar
    21     6    29    1
    22    29    30    1
    23    30    37    1
    24    37    38    1
    25    38    39    1
    26    30    31    1
    27    31    32    1
    28    32    33    1
    29    33    34    1
    30    34    35    1
    31    35    36    1
    32    18    19    1
    33    19    20    2
    34    19    21    1
    35    21    22    2
    36    22    11   ar
    37    22    16   ar
    38     6     1   ar
    39    36    31    1
    40    24    25    1
    41     9    10    1
    42    27    28    1
    43    39    40    1
@<TRIPOS>MOLECULE
*****
 40 43 0 0 0
SMALL
GASTEIGER

@<TRIPOS>ATOM
      1 C         142.1636  142.4380  166.0490 C.ar    1  UNL1        0.0476
      2 C         143.2740  142.2393  167.0379 C.ar    1  UNL1        0.0141
      3 C         142.9684  142.1699  168.5047 C.ar    1  UNL1       -0.0006
      4 C         141.5526  142.2991  168.9829 C.ar    1  UNL1        0.0068
      5 C         140.4422  142.4978  167.9941 C.ar    1  UNL1       -0.0036
      6 C         140.7477  142.5672  166.5272 C.ar    1  UNL1        0.0071
      7 C         143.0332  141.3102  163.8761 C.2     1  UNL1        0.2386
      8 O         143.2916  140.0436  164.6369 O.2     1  UNL1       -0.2739
      9 N         142.4691  142.5074  164.5821 N.am    1  UNL1       -0.2835
     10 H         142.2995  143.3387  164.0828 H       1  UNL1        0.1549
     11 C         144.2555  141.5878  158.0084 C.ar    1  UNL1        0.0624
     12 C         143.7758  140.5030  157.0903 C.ar    1  UNL1        0.0452
     13 C         142.9906  139.3487  157.6390 C.ar    1  UNL1        0.1414
     14 F         142.5110  138.2638  156.7208 F       1  UNL1       -0.2041
     15 C         142.6850  139.2793  159.1059 C.ar    1  UNL1        0.0307
     16 C         143.1647  140.3641  160.0240 C.ar    1  UNL1        0.0155
     17 C         142.8591  140.2948  161.4910 C.2     1  UNL1       -0.0068
     18 C         143.3387  141.3796  162.4091 C.3     1  UNL1        0.1768
     19 C         144.1239  142.5339  161.8604 C.2     1  UNL1        0.2581
     20 O         144.6036  143.6187  162.7786 O.2     1  UNL1       -0.2721
     21 N         144.4295  142.6033  160.3935 N.am    1  UNL1       -0.1773
     22 C         143.9499  141.5184  159.4753 C.ar    1  UNL1        0.0862
     23 C         146.5189  142.6082  157.2431 C.3     1  UNL1        0.1086
     24 N         145.0407  142.7421  157.4597 N.pl3   1  UNL1       -0.3302
     25 H         144.5858  143.5876  157.2417 H       1  UNL1        0.1469
     26 C         141.2470  142.2297  170.4498 C.3     1  UNL1        0.1636
     27 O         142.3120  142.5575  171.4540 O.3     1  UNL1       -0.3772
     28 H         143.0186  141.8949  171.4039 H       1  UNL1        0.2109
     29 C         139.6374  142.7659  165.5384 C.3     1  UNL1        0.1004
     30 N         139.3569  141.7159  164.5046 N.3     1  UNL1       -0.2681
     31 C         139.1739  140.2858  164.9185 C.3     1  UNL1        0.0579
     32 C         138.1996  139.9382  166.0049 C.3     1  UNL1        0.0160
     33 C         138.0166  138.5082  166.4188 C.3     1  UNL1        0.0014
     34 C         138.8078  137.4256  165.7464 C.3     1  UNL1        0.0001
     35 C         139.7820  137.7731  164.6601 C.3     1  UNL1        0.0014
     36 C         139.9651  139.2032  164.2461 C.3     1  UNL1        0.0160
     37 C         139.2595  142.0959  163.0568 C.3     1  UNL1        0.1044
     38 C         137.9146  142.2520  162.4113 C.3     1  UNL1        0.1544
     39 O         136.7544  141.4283  162.8864 O.3     1  UNL1       -0.3805
     40 H         136.9206  140.4928  162.6912 H       1  UNL1        0.2105
@<TRIPOS>BOND
     1    23    24    1
     2    24    11    1
     3    11    12   ar
     4    12    13   ar
     5    13    14    1
     6    13    15   ar
     7    15    16   ar
     8    16    17    2
     9    17    18    1
    10    18     7    1
    11     7     8    2
    12     7     9   am
    13     9     1    1
    14     1     2   ar
    15     2     3   ar
    16     3     4   ar
    17     4    26    1
    18    26    27    1
    19     4     5   ar
    20     5     6   ar
    21     6    29    1
    22    29    30    1
    23    30    37    1
    24    37    38    1
    25    38    39    1
    26    30    31    1
    27    31    32    1
    28    32    33    1
    29    33    34    1
    30    34    35    1
    31    35    36    1
    32    18    19    1
    33    19    20    2
    34    19    21    1
    35    21    22    2
    36    22    11   ar
    37    22    16   ar
    38     6     1   ar
    39    36    31    1
    40    24    25    1
    41     9    10    1
    42    27    28    1
    43    39    40    1
@<TRIPOS>MOLECULE
*****
 40 43 0 0 0
SMALL
GASTEIGER

@<TRIPOS>ATOM
      1 C         141.6791  140.2775  166.4550 C.ar    1  UNL1        0.0476
      2 C         142.8114  140.1459  167.4300 C.ar    1  UNL1        0.0141
      3 C         142.5595  140.3139  168.8991 C.ar    1  UNL1       -0.0006
      4 C         141.1754  140.6136  169.3932 C.ar    1  UNL1        0.0068
      5 C         140.0431  140.7452  168.4183 C.ar    1  UNL1       -0.0036
      6 C         140.2949  140.5772  166.9491 C.ar    1  UNL1        0.0071
      7 C         142.1192  141.3158  164.1145 C.2     1  UNL1        0.2386
      8 O         142.0555  142.6901  164.7122 O.2     1  UNL1       -0.2739
      9 N         141.9310  140.1095  164.9859 N.am    1  UNL1       -0.2835
     10 H         141.9728  139.2075  164.5936 H       1  UNL1        0.1549
     11 C         143.1270  140.6440  158.2379 C.ar    1  UNL1        0.0624
     12 C         142.0900  141.0778  157.2448 C.ar    1  UNL1        0.0452
     13 C         140.8011  141.6797  157.7207 C.ar    1  UNL1        0.1414
     14 F         139.7641  142.1135  156.7275 F       1  UNL1       -0.2041
     15 C         140.5491  141.8476  159.1898 C.ar    1  UNL1        0.0307
     16 C         141.5861  141.4138  160.1830 C.ar    1  UNL1        0.0155
     17 C         141.3342  141.5817  161.6521 C.2     1  UNL1       -0.0068
     18 C         142.3711  141.1479  162.6453 C.3     1  UNL1        0.1768
     19 C         143.6601  140.5460  162.1694 C.2     1  UNL1        0.2581
     20 O         144.6971  140.1122  163.1626 O.2     1  UNL1       -0.2721
     21 N         143.9120  140.3781  160.7003 N.am    1  UNL1       -0.1773
     22 C         142.8750  140.8119  159.7070 C.ar    1  UNL1        0.0862
     23 C         145.1841  140.6959  156.6519 C.3     1  UNL1        0.1086
     24 N         144.4159  140.0421  157.7620 N.pl3   1  UNL1       -0.3302
     25 H         144.7576  139.2180  158.1783 H       1  UNL1        0.1469
     26 C         140.9235  140.7816  170.8623 C.3     1  UNL1        0.1636
     27 O         142.0555  140.6485  171.8374 O.3     1  UNL1       -0.3772
     28 H         142.3812  139.7348  171.8321 H       1  UNL1        0.2109
     29 C         139.1626  140.7089  165.9742 C.3     1  UNL1        0.1004
     30 N         138.6743  139.5048  165.2248 N.3     1  UNL1       -0.2681
     31 C         138.5014  139.5671  163.7362 C.3     1  UNL1        0.0579
     32 C         138.9940  138.4411  162.8761 C.3     1  UNL1        0.0160
     33 C         138.8210  138.5034  161.3874 C.3     1  UNL1        0.0014
     34 C         138.1555  139.6916  160.7587 C.3     1  UNL1        0.0001
     35 C         137.6629  140.8175  161.6187 C.3     1  UNL1        0.0014
     36 C         137.8358  140.7553  163.1075 C.3     1  UNL1        0.0160
     37 C         138.3588  138.2383  165.9641 C.3     1  UNL1        0.1044
     38 C         137.4373  138.2702  167.1472 C.3     1  UNL1        0.1544
     39 O         136.9323  136.9878  167.7393 O.3     1  UNL1       -0.3805
     40 H         136.3583  136.5397  167.0984 H       1  UNL1        0.2105
@<TRIPOS>BOND
     1    23    24    1
     2    24    11    1
     3    11    12   ar
     4    12    13   ar
     5    13    14    1
     6    13    15   ar
     7    15    16   ar
     8    16    17    2
     9    17    18    1
    10    18     7    1
    11     7     8    2
    12     7     9   am
    13     9     1    1
    14     1     2   ar
    15     2     3   ar
    16     3     4   ar
    17     4    26    1
    18    26    27    1
    19     4     5   ar
    20     5     6   ar
    21     6    29    1
    22    29    30    1
    23    30    37    1
    24    37    38    1
    25    38    39    1
    26    30    31    1
    27    31    32    1
    28    32    33    1
    29    33    34    1
    30    34    35    1
    31    35    36    1
    32    18    19    1
    33    19    20    2
    34    19    21    1
    35    21    22    2
    36    22    11   ar
    37    22    16   ar
    38     6     1   ar
    39    36    31    1
    40    24    25    1
    41     9    10    1
    42    27    28    1
    43    39    40    1
@<TRIPOS>MOLECULE
*****
 40 43 0 0 0
SMALL
GASTEIGER

@<TRIPOS>ATOM
      1 C         141.2384  139.2624  166.0516 C.ar    1  UNL1        0.0476
      2 C         142.4361  139.2849  166.9544 C.ar    1  UNL1        0.0141
      3 C         142.2748  139.6269  168.4059 C.ar    1  UNL1       -0.0006
      4 C         140.9159  139.9465  168.9547 C.ar    1  UNL1        0.0068
      5 C         139.7182  139.9241  168.0519 C.ar    1  UNL1       -0.0036
      6 C         139.8794  139.5820  166.6003 C.ar    1  UNL1        0.0071
      7 C         142.3094  139.7394  163.7331 C.2     1  UNL1        0.2386
      8 O         143.0578  140.9004  164.3178 O.2     1  UNL1       -0.2739
      9 N         141.3996  138.9203  164.6001 N.am    1  UNL1       -0.2835
     10 H         140.9084  138.1583  164.2164 H       1  UNL1        0.1549
     11 C         142.9546  138.3712  157.9269 C.ar    1  UNL1        0.0624
     12 C         143.5379  139.3773  156.9797 C.ar    1  UNL1        0.0452
     13 C         143.9600  140.7255  157.4839 C.ar    1  UNL1        0.1414
     14 F         144.5434  141.7316  156.5366 F       1  UNL1       -0.2041
     15 C         143.7987  141.0675  158.9354 C.ar    1  UNL1        0.0307
     16 C         143.2154  140.0614  159.8827 C.ar    1  UNL1        0.0155
     17 C         143.0540  140.4035  161.3343 C.2     1  UNL1       -0.0068
     18 C         142.4707  139.3973  162.2815 C.3     1  UNL1        0.1768
     19 C         142.0486  138.0492  161.7773 C.2     1  UNL1        0.2581
     20 O         141.4652  137.0430  162.7246 O.2     1  UNL1       -0.2721
     21 N         142.2099  137.7071  160.3258 N.am    1  UNL1       -0.1773
     22 C         142.7933  138.7133  159.3784 C.ar    1  UNL1        0.0862
     23 C         141.5575  136.9183  156.2876 C.3     1  UNL1        0.1086
     24 N         142.5325  137.0230  157.4227 N.pl3   1  UNL1       -0.3302
     25 H         142.8954  136.2069  157.8367 H       1  UNL1        0.1469
     26 C         140.7546  140.2886  170.4062 C.3     1  UNL1        0.1636
     27 O         139.8435  139.4706  171.2728 O.3     1  UNL1       -0.3772
     28 H         138.9269  139.5846  170.9764 H       1  UNL1        0.2109
     29 C         138.6818  139.5595  165.6976 C.3     1  UNL1        0.1004
     30 N         138.6481  140.4272  164.4744 N.3     1  UNL1       -0.2681
     31 C         138.7970  141.9140  164.6053 C.3     1  UNL1        0.0579
     32 C         140.1536  142.5156  164.8242 C.3     1  UNL1        0.0160
     33 C         140.3025  144.0024  164.9550 C.3     1  UNL1        0.0014
     34 C         139.0948  144.8877  164.8669 C.3     1  UNL1        0.0001
     35 C         137.7383  144.2862  164.6480 C.3     1  UNL1        0.0014
     36 C         137.5894  142.7993  164.5171 C.3     1  UNL1        0.0160
     37 C         138.4656  139.8080  163.1205 C.3     1  UNL1        0.1044
     38 C         138.3614  138.3178  162.9851 C.3     1  UNL1        0.1544
     39 O         138.6631  137.6612  161.6705 O.3     1  UNL1       -0.3805
     40 H         138.0007  137.9304  161.0151 H       1  UNL1        0.2105
@<TRIPOS>BOND
     1    23    24    1
     2    24    11    1
     3    11    12   ar
     4    12    13   ar
     5    13    14    1
     6    13    15   ar
     7    15    16   ar
     8    16    17    2
     9    17    18    1
    10    18     7    1
    11     7     8    2
    12     7     9   am
    13     9     1    1
    14     1     2   ar
    15     2     3   ar
    16     3     4   ar
    17     4    26    1
    18    26    27    1
    19     4     5   ar
    20     5     6   ar
    21     6    29    1
    22    29    30    1
    23    30    37    1
    24    37    38    1
    25    38    39    1
    26    30    31    1
    27    31    32    1
    28    32    33    1
    29    33    34    1
    30    34    35    1
    31    35    36    1
    32    18    19    1
    33    19    20    2
    34    19    21    1
    35    21    22    2
    36    22    11   ar
    37    22    16   ar
    38     6     1   ar
    39    36    31    1
    40    24    25    1
    41     9    10    1
    42    27    28    1
    43    39    40    1
@<TRIPOS>MOLECULE
*****
 40 43 0 0 0
SMALL
GASTEIGER

@<TRIPOS>ATOM
      1 C         140.7326  141.8482  166.3889 C.ar    1  UNL1        0.0476
      2 C         140.6989  142.9811  167.3714 C.ar    1  UNL1        0.0141
      3 C         140.5115  142.7010  168.8330 C.ar    1  UNL1       -0.0006
      4 C         140.3577  141.2879  169.3122 C.ar    1  UNL1        0.0068
      5 C         140.3914  140.1550  168.3297 C.ar    1  UNL1       -0.0036
      6 C         140.5788  140.4351  166.8680 C.ar    1  UNL1        0.0071
      7 C         142.2589  142.5681  164.4136 C.2     1  UNL1        0.2386
      8 O         143.4104  142.7277  165.3616 O.2     1  UNL1       -0.2739
      9 N         140.9200  142.1283  164.9273 N.am    1  UNL1       -0.2835
     10 H         140.1643  142.0236  164.3051 H       1  UNL1        0.1549
     11 C         143.0089  143.6888  158.5671 C.ar    1  UNL1        0.0624
     12 C         143.5643  142.6269  157.6651 C.ar    1  UNL1        0.0452
     13 C         143.9323  141.2847  158.2247 C.ar    1  UNL1        0.1414
     14 F         144.4878  140.2227  157.3226 F       1  UNL1       -0.2041
     15 C         143.7449  141.0045  159.6863 C.ar    1  UNL1        0.0307
     16 C         143.1894  142.0665  160.5883 C.ar    1  UNL1        0.0155
     17 C         143.0019  141.7863  162.0499 C.2     1  UNL1       -0.0068
     18 C         142.4464  142.8482  162.9519 C.3     1  UNL1        0.1768
     19 C         142.0784  144.1904  162.3923 C.2     1  UNL1        0.2581
     20 O         141.5229  145.2524  163.2944 O.2     1  UNL1       -0.2721
     21 N         142.2659  144.4706  160.9308 N.am    1  UNL1       -0.1773
     22 C         142.8214  143.4086  160.0287 C.ar    1  UNL1        0.0862
     23 C         141.2437  145.2846  157.5241 C.3     1  UNL1        0.1086
     24 N         142.6409  145.0310  158.0075 N.pl3   1  UNL1       -0.3302
     25 H         143.3163  145.7455  157.9575 H       1  UNL1        0.1469
     26 C         140.1703  141.0078  170.7738 C.3     1  UNL1        0.1636
     27 O         140.5282  142.0519  171.7895 O.3     1  UNL1       -0.3772
     28 H         141.4863  142.2025  171.7747 H       1  UNL1        0.2109
     29 C         140.6125  139.3022  165.8855 C.3     1  UNL1        0.1004
     30 N         141.8308  139.0792  165.0394 N.3     1  UNL1       -0.2681
     31 C         141.6862  138.8308  163.5672 C.3     1  UNL1        0.0579
     32 C         140.4481  139.2793  162.8489 C.3     1  UNL1        0.0160
     33 C         140.3035  139.0309  161.3767 C.3     1  UNL1        0.0014
     34 C         141.3971  138.3340  160.6227 C.3     1  UNL1        0.0001
     35 C         142.6352  137.8856  161.3409 C.3     1  UNL1        0.0014
     36 C         142.7798  138.1339  162.8132 C.3     1  UNL1        0.0160
     37 C         143.1936  139.1045  165.6654 C.3     1  UNL1        0.1044
     38 C         143.4512  138.3442  166.9325 C.3     1  UNL1        0.1544
     39 O         144.5167  137.2889  166.9705 O.3     1  UNL1       -0.3805
     40 H         144.2653  136.5546  166.3887 H       1  UNL1        0.2105
@<TRIPOS>BOND
     1    23    24    1
     2    24    11    1
     3    11    12   ar
     4    12    13   ar
     5    13    14    1
     6    13    15   ar
     7    15    16   ar
     8    16    17    2
     9    17    18    1
    10    18     7    1
    11     7     8    2
    12     7     9   am
    13     9     1    1
    14     1     2   ar
    15     2     3   ar
    16     3     4   ar
    17     4    26    1
    18    26    27    1
    19     4     5   ar
    20     5     6   ar
    21     6    29    1
    22    29    30    1
    23    30    37    1
    24    37    38    1
    25    38    39    1
    26    30    31    1
    27    31    32    1
    28    32    33    1
    29    33    34    1
    30    34    35    1
    31    35    36    1
    32    18    19    1
    33    19    20    2
    34    19    21    1
    35    21    22    2
    36    22    11   ar
    37    22    16   ar
    38     6     1   ar
    39    36    31    1
    40    24    25    1
    41     9    10    1
    42    27    28    1
    43    39    40    1
