@<TRIPOS>MOLECULE
*****
 31 35 0 0 0
SMALL
GASTEIGER

@<TRIPOS>ATOM
      1 C         140.3679  138.1115  157.7083 C.3     1  UNL1        0.0181
      2 C         141.0321  138.6929  158.9212 C.3     1  UNL1        0.0036
      3 C         141.4034  139.3476  160.2187 C.3     1  UNL1        0.0227
      4 C         140.1413  139.8205  160.8771 C.3     1  UNL1        0.0870
      5 C         138.9900  139.4580  159.9865 C.3     1  UNL1        0.0227
      6 C         139.5405  138.7610  158.7777 C.3     1  UNL1        0.0036
      7 N         140.0471  140.5311  162.1947 N.ar    1  UNL1       -0.3109
      8 C         140.3900  141.9694  162.4472 C.ar    1  UNL1        0.1785
      9 N         140.1482  142.2553  163.8997 N.ar    1  UNL1       -0.2239
     10 C         139.6559  140.9938  164.5449 C.ar    1  UNL1        0.1011
     11 C         139.2565  140.6778  165.9557 C.ar    1  UNL1        0.0526
     12 C         138.7945  139.2961  166.3129 C.ar    1  UNL1        0.1690
     13 F         138.3951  138.9801  167.7237 F       1  UNL1       -0.2017
     14 C         138.7320  138.2304  165.2591 C.ar    1  UNL1        0.1689
     15 F         138.2701  136.8487  165.6161 F       1  UNL1       -0.2017
     16 C         139.1315  138.5465  163.8482 C.ar    1  UNL1        0.0507
     17 C         139.5934  139.9282  163.4911 C.ar    1  UNL1        0.0813
     18 C         140.4623  137.4009  156.3908 C.3     1  UNL1        0.0718
     19 N         141.0634  136.0283  156.3203 N.am    1  UNL1       -0.3025
     20 C         142.5491  135.8537  156.4291 C.2     1  UNL1        0.2458
     21 O         143.4339  137.0516  156.6084 O.2     1  UNL1       -0.2701
     22 H         140.4826  135.2421  156.2026 H       1  UNL1        0.1497
     23 C         143.1502  134.4812  156.3586 C.ar    1  UNL1        0.0534
     24 C         143.8978  133.9285  157.5355 C.ar    1  UNL1        0.0054
     25 C         144.4989  132.5559  157.4650 C.ar    1  UNL1        0.0115
     26 C         144.3522  131.7362  156.2175 C.ar    1  UNL1        0.0577
     27 CL        144.9533  130.3637  156.1469 Cl      1  UNL1       -0.0822
     28 C         143.6045  132.2889  155.0404 C.ar    1  UNL1        0.0115
     29 C         143.0035  133.6614  155.1110 C.ar    1  UNL1        0.0054
     30 C         138.8190  137.4515  154.3790 C.3     1  UNL1        0.0017
     31 C         139.9556  138.0627  155.1436 C.3     1  UNL1        0.0196
@<TRIPOS>BOND
     1    30    31    1
     2    18    31    1
     3    18    19    1
     4    19    20   am
     5    20    21    2
     6    20    23    1
     7    23    24   ar
     8    24    25   ar
     9    25    26   ar
    10    26    27    1
    11    26    28   ar
    12    28    29   ar
    13     1    18    1
    14     1     2    1
    15     2     3    1
    16     3     4    1
    17     4     7    1
    18     7     8   ar
    19     8     9   ar
    20     9    10   ar
    21    10    11   ar
    22    11    12   ar
    23    12    13    1
    24    12    14   ar
    25    14    15    1
    26    14    16   ar
    27    16    17   ar
    28     4     5    1
    29     6     5    1
    30    29    23   ar
    31     6     1    1
    32     6     2    1
    33    17     7   ar
    34    17    10   ar
    35    19    22    1
@<TRIPOS>MOLECULE
*****
 31 35 0 0 0
SMALL
GASTEIGER

@<TRIPOS>ATOM
      1 C         140.4132  144.6349  158.0595 C.3     1  UNL1        0.0181
      2 C         140.3593  144.6649  159.5583 C.3     1  UNL1        0.0036
      3 C         140.1182  144.4457  161.0225 C.3     1  UNL1        0.0227
      4 C         139.2118  143.2598  161.1706 C.3     1  UNL1        0.0870
      5 C         138.8926  142.7460  159.7979 C.3     1  UNL1        0.0227
      6 C         139.6018  143.6145  158.8014 C.3     1  UNL1        0.0036
      7 N         138.7123  142.6880  162.4642 N.ar    1  UNL1       -0.3109
      8 C         137.9935  143.4431  163.5427 C.ar    1  UNL1        0.1785
      9 N         137.6808  142.4825  164.6515 N.ar    1  UNL1       -0.2239
     10 C         138.2063  141.1337  164.2583 C.ar    1  UNL1        0.1011
     11 C         138.1867  139.8063  164.9565 C.ar    1  UNL1        0.0526
     12 C         138.8046  138.6058  164.3029 C.ar    1  UNL1        0.1690
     13 F         138.7850  137.2784  165.0011 F       1  UNL1       -0.2017
     14 C         139.4421  138.7328  162.9510 C.ar    1  UNL1        0.1689
     15 F         140.0600  137.5325  162.2974 F       1  UNL1       -0.2017
     16 C         139.4617  140.0603  162.2528 C.ar    1  UNL1        0.0507
     17 C         138.8438  141.2607  162.9064 C.ar    1  UNL1        0.0813
     18 C         140.9128  145.2067  156.7659 C.3     1  UNL1        0.0718
     19 N         140.6733  146.6518  156.4426 N.am    1  UNL1       -0.3025
     20 C         139.5387  147.0407  155.5419 C.2     1  UNL1        0.2458
     21 O         138.6436  145.9847  154.9644 O.2     1  UNL1       -0.2701
     22 H         141.2608  147.3449  156.8216 H       1  UNL1        0.1497
     23 C         139.2992  148.4858  155.2185 C.ar    1  UNL1        0.0534
     24 C         138.5832  149.3653  156.2002 C.ar    1  UNL1        0.0054
     25 C         138.3437  150.8104  155.8768 C.ar    1  UNL1        0.0115
     26 C         138.8202  151.3758  154.5718 C.ar    1  UNL1        0.0577
     27 CL        138.5807  152.8208  154.2484 Cl      1  UNL1       -0.0822
     28 C         139.5362  150.4962  153.5901 C.ar    1  UNL1        0.0115
     29 C         139.7757  149.0512  153.9135 C.ar    1  UNL1        0.0054
     30 C         142.5168  144.9528  154.7380 C.3     1  UNL1        0.0017
     31 C         141.6519  144.3337  155.7957 C.3     1  UNL1        0.0196
@<TRIPOS>BOND
     1    30    31    1
     2    18    31    1
     3    18    19    1
     4    19    20   am
     5    20    21    2
     6    20    23    1
     7    23    24   ar
     8    24    25   ar
     9    25    26   ar
    10    26    27    1
    11    26    28   ar
    12    28    29   ar
    13     1    18    1
    14     1     2    1
    15     2     3    1
    16     3     4    1
    17     4     7    1
    18     7     8   ar
    19     8     9   ar
    20     9    10   ar
    21    10    11   ar
    22    11    12   ar
    23    12    13    1
    24    12    14   ar
    25    14    15    1
    26    14    16   ar
    27    16    17   ar
    28     4     5    1
    29     6     5    1
    30    29    23   ar
    31     6     1    1
    32     6     2    1
    33    17     7   ar
    34    17    10   ar
    35    19    22    1
@<TRIPOS>MOLECULE
*****
 31 35 0 0 0
SMALL
GASTEIGER

@<TRIPOS>ATOM
      1 C         140.4524  145.1513  157.9343 C.3     1  UNL1        0.0181
      2 C         140.3279  145.4928  159.3897 C.3     1  UNL1        0.0036
      3 C         140.1066  145.5372  160.8726 C.3     1  UNL1        0.0227
      4 C         139.6171  144.1881  161.3088 C.3     1  UNL1        0.0870
      5 C         139.5359  143.3099  160.0956 C.3     1  UNL1        0.0227
      6 C         139.9752  144.1162  158.9094 C.3     1  UNL1        0.0036
      7 N         139.2698  143.7876  162.7121 N.ar    1  UNL1       -0.3109
      8 C         137.8871  143.6960  163.2862 C.ar    1  UNL1        0.1785
      9 N         138.0070  143.2602  164.7164 N.ar    1  UNL1       -0.2239
     10 C         139.4639  143.0825  165.0263 C.ar    1  UNL1        0.1011
     11 C         140.1806  142.6659  166.2764 C.ar    1  UNL1        0.0526
     12 C         141.6779  142.5754  166.2877 C.ar    1  UNL1        0.1690
     13 F         142.3946  142.1589  167.5378 F       1  UNL1       -0.2017
     14 C         142.4584  142.9014  165.0489 C.ar    1  UNL1        0.1689
     15 F         143.9556  142.8109  165.0602 F       1  UNL1       -0.2017
     16 C         141.7416  143.3179  163.7988 C.ar    1  UNL1        0.0507
     17 C         140.2444  143.4085  163.7875 C.ar    1  UNL1        0.0813
     18 C         140.7997  145.5519  156.5312 C.3     1  UNL1        0.0718
     19 N         140.6530  146.9816  156.1013 N.am    1  UNL1       -0.3025
     20 C         139.3937  147.4359  155.4250 C.2     1  UNL1        0.2458
     21 O         138.2809  146.4608  155.1784 O.2     1  UNL1       -0.2701
     22 H         141.3833  147.6216  156.2631 H       1  UNL1        0.1497
     23 C         139.2470  148.8656  154.9951 C.ar    1  UNL1        0.0534
     24 C         138.5750  149.8556  155.8996 C.ar    1  UNL1        0.0054
     25 C         138.4283  151.2852  155.4697 C.ar    1  UNL1        0.0115
     26 C         138.9537  151.7247  154.1352 C.ar    1  UNL1        0.0577
     27 CL        138.8070  153.1542  153.7053 Cl      1  UNL1       -0.0822
     28 C         139.6257  150.7346  153.2307 C.ar    1  UNL1        0.0115
     29 C         139.7723  149.3051  153.6606 C.ar    1  UNL1        0.0054
     30 C         142.5881  143.8095  155.8133 C.3     1  UNL1        0.0017
     31 C         141.2937  144.5231  155.5578 C.3     1  UNL1        0.0196
@<TRIPOS>BOND
     1    30    31    1
     2    18    31    1
     3    18    19    1
     4    19    20   am
     5    20    21    2
     6    20    23    1
     7    23    24   ar
     8    24    25   ar
     9    25    26   ar
    10    26    27    1
    11    26    28   ar
    12    28    29   ar
    13     1    18    1
    14     1     2    1
    15     2     3    1
    16     3     4    1
    17     4     7    1
    18     7     8   ar
    19     8     9   ar
    20     9    10   ar
    21    10    11   ar
    22    11    12   ar
    23    12    13    1
    24    12    14   ar
    25    14    15    1
    26    14    16   ar
    27    16    17   ar
    28     4     5    1
    29     6     5    1
    30    29    23   ar
    31     6     1    1
    32     6     2    1
    33    17     7   ar
    34    17    10   ar
    35    19    22    1
@<TRIPOS>MOLECULE
*****
 31 35 0 0 0
SMALL
GASTEIGER

@<TRIPOS>ATOM
      1 C         142.2633  137.5968  157.3927 C.3     1  UNL1        0.0181
      2 C         140.9231  138.1557  157.7695 C.3     1  UNL1        0.0036
      3 C         139.7327  138.8113  158.4044 C.3     1  UNL1        0.0227
      4 C         140.1681  139.3908  159.7176 C.3     1  UNL1        0.0870
      5 C         141.6276  139.0933  159.8944 C.3     1  UNL1        0.0227
      6 C         142.0943  138.3300  158.6904 C.3     1  UNL1        0.0036
      7 N         139.2969  140.1367  160.6843 N.ar    1  UNL1       -0.3109
      8 C         138.5247  141.3887  160.3905 C.ar    1  UNL1        0.1785
      9 N         137.7955  141.7873  161.6392 N.ar    1  UNL1       -0.2239
     10 C         138.1170  140.7818  162.7048 C.ar    1  UNL1        0.1011
     11 C         137.6847  140.6633  164.1362 C.ar    1  UNL1        0.0526
     12 C         138.1803  139.5246  164.9776 C.ar    1  UNL1        0.1690
     13 F         137.7480  139.4062  166.4090 F       1  UNL1       -0.2017
     14 C         139.1082  138.5045  164.3875 C.ar    1  UNL1        0.1689
     15 F         139.6038  137.3658  165.2288 F       1  UNL1       -0.2017
     16 C         139.5405  138.6230  162.9560 C.ar    1  UNL1        0.0507
     17 C         139.0449  139.7616  162.1147 C.ar    1  UNL1        0.0813
     18 C         143.1343  136.8509  156.4260 C.3     1  UNL1        0.0718
     19 N         143.6222  135.4734  156.7648 N.am    1  UNL1       -0.3025
     20 C         142.8002  134.2746  156.3949 C.2     1  UNL1        0.2458
     21 O         141.4903  134.4530  155.6862 O.2     1  UNL1       -0.2701
     22 H         144.4819  135.3563  157.2299 H       1  UNL1        0.1497
     23 C         143.2881  132.8971  156.7337 C.ar    1  UNL1        0.0534
     24 C         142.5588  131.6941  156.2134 C.ar    1  UNL1        0.0054
     25 C         143.0466  130.3166  156.5522 C.ar    1  UNL1        0.0115
     26 C         144.2638  130.1423  157.4113 C.ar    1  UNL1        0.0577
     27 CL        144.7517  128.7650  157.7501 Cl      1  UNL1       -0.0822
     28 C         144.9932  131.3454  157.9316 C.ar    1  UNL1        0.0115
     29 C         144.5053  132.7228  157.5927 C.ar    1  UNL1        0.0054
     30 C         144.7078  138.3923  155.0483 C.3     1  UNL1        0.0017
     31 C         143.5177  137.4822  155.1204 C.3     1  UNL1        0.0196
@<TRIPOS>BOND
     1    30    31    1
     2    18    31    1
     3    18    19    1
     4    19    20   am
     5    20    21    2
     6    20    23    1
     7    23    24   ar
     8    24    25   ar
     9    25    26   ar
    10    26    27    1
    11    26    28   ar
    12    28    29   ar
    13     1    18    1
    14     1     2    1
    15     2     3    1
    16     3     4    1
    17     4     7    1
    18     7     8   ar
    19     8     9   ar
    20     9    10   ar
    21    10    11   ar
    22    11    12   ar
    23    12    13    1
    24    12    14   ar
    25    14    15    1
    26    14    16   ar
    27    16    17   ar
    28     4     5    1
    29     6     5    1
    30    29    23   ar
    31     6     1    1
    32     6     2    1
    33    17     7   ar
    34    17    10   ar
    35    19    22    1
@<TRIPOS>MOLECULE
*****
 31 35 0 0 0
SMALL
GASTEIGER

@<TRIPOS>ATOM
      1 C         141.1970  139.0033  158.5478 C.3     1  UNL1        0.0181
      2 C         142.1227  137.9581  157.9991 C.3     1  UNL1        0.0036
      3 C         142.7980  136.8267  157.2823 C.3     1  UNL1        0.0227
      4 C         141.7944  136.1953  156.3635 C.3     1  UNL1        0.0870
      5 C         140.4989  136.9365  156.5124 C.3     1  UNL1        0.0227
      6 C         140.7017  138.0261  157.5233 C.3     1  UNL1        0.0036
      7 N         142.0428  135.0277  155.4552 N.ar    1  UNL1       -0.3109
      8 C         141.4699  134.8418  154.0815 C.ar    1  UNL1        0.1785
      9 N         141.9808  133.5402  153.5385 N.ar    1  UNL1       -0.2239
     10 C         142.8694  132.9216  154.5767 C.ar    1  UNL1        0.1011
     11 C         143.6486  131.6401  154.5964 C.ar    1  UNL1        0.0526
     12 C         144.4662  131.2778  155.8008 C.ar    1  UNL1        0.1690
     13 F         145.2454  129.9963  155.8205 F       1  UNL1       -0.2017
     14 C         144.5045  132.1972  156.9854 C.ar    1  UNL1        0.1689
     15 F         145.3220  131.8350  158.1897 F       1  UNL1       -0.2017
     16 C         143.7253  133.4788  156.9656 C.ar    1  UNL1        0.0507
     17 C         142.9077  133.8410  155.7613 C.ar    1  UNL1        0.0813
     18 C         140.9488  140.1709  159.4561 C.3     1  UNL1        0.0718
     19 N         140.6340  139.9406  160.9046 N.am    1  UNL1       -0.3025
     20 C         139.2424  139.5647  161.3191 C.2     1  UNL1        0.2458
     21 O         138.1654  139.4189  160.2853 O.2     1  UNL1       -0.2701
     22 H         141.3409  140.0363  161.5832 H       1  UNL1        0.1497
     23 C         138.9277  139.3344  162.7676 C.ar    1  UNL1        0.0534
     24 C         138.3732  140.4512  163.6014 C.ar    1  UNL1        0.0054
     25 C         138.0585  140.2209  165.0499 C.ar    1  UNL1        0.0115
     26 C         138.2983  138.8738  165.6645 C.ar    1  UNL1        0.0577
     27 CL        137.9836  138.6435  167.1129 Cl      1  UNL1       -0.0822
     28 C         138.8528  137.7570  164.8306 C.ar    1  UNL1        0.0115
     29 C         139.1675  137.9873  163.3822 C.ar    1  UNL1        0.0054
     30 C         141.8729  142.5951  159.5950 C.3     1  UNL1        0.0017
     31 C         141.0152  141.5687  158.9161 C.3     1  UNL1        0.0196
@<TRIPOS>BOND
     1    30    31    1
     2    18    31    1
     3    18    19    1
     4    19    20   am
     5    20    21    2
     6    20    23    1
     7    23    24   ar
     8    24    25   ar
     9    25    26   ar
    10    26    27    1
    11    26    28   ar
    12    28    29   ar
    13     1    18    1
    14     1     2    1
    15     2     3    1
    16     3     4    1
    17     4     7    1
    18     7     8   ar
    19     8     9   ar
    20     9    10   ar
    21    10    11   ar
    22    11    12   ar
    23    12    13    1
    24    12    14   ar
    25    14    15    1
    26    14    16   ar
    27    16    17   ar
    28     4     5    1
    29     6     5    1
    30    29    23   ar
    31     6     1    1
    32     6     2    1
    33    17     7   ar
    34    17    10   ar
    35    19    22    1
@<TRIPOS>MOLECULE
*****
 31 35 0 0 0
SMALL
GASTEIGER

@<TRIPOS>ATOM
      1 C         142.4007  137.9119  157.9452 C.3     1  UNL1        0.0181
      2 C         141.1387  138.3506  158.6273 C.3     1  UNL1        0.0036
      3 C         140.0412  138.7415  159.5721 C.3     1  UNL1        0.0227
      4 C         140.5638  138.6050  160.9715 C.3     1  UNL1        0.0870
      5 C         141.9843  138.1298  160.8916 C.3     1  UNL1        0.0227
      6 C         142.3397  137.9725  159.4427 C.3     1  UNL1        0.0036
      7 N         139.8000  138.8933  162.2299 N.ar    1  UNL1       -0.3109
      8 C         139.3945  137.8866  163.2653 C.ar    1  UNL1        0.1785
      9 N         138.6515  138.6100  164.3491 N.ar    1  UNL1       -0.2239
     10 C         138.5978  140.0638  163.9834 C.ar    1  UNL1        0.1011
     11 C         137.9942  141.2507  164.6739 C.ar    1  UNL1        0.0526
     12 C         138.1004  142.6128  164.0547 C.ar    1  UNL1        0.1690
     13 F         137.4968  143.7998  164.7451 F       1  UNL1       -0.2017
     14 C         138.8102  142.7879  162.7449 C.ar    1  UNL1        0.1689
     15 F         138.9165  144.1499  162.1256 F       1  UNL1       -0.2017
     16 C         139.4138  141.6009  162.0544 C.ar    1  UNL1        0.0507
     17 C         139.3076  140.2389  162.6737 C.ar    1  UNL1        0.0813
     18 C         143.1644  137.6237  156.6868 C.3     1  UNL1        0.0718
     19 N         143.6802  136.2401  156.4228 N.am    1  UNL1       -0.3025
     20 C         142.7536  135.1802  155.9053 C.2     1  UNL1        0.2458
     21 O         141.3110  135.5038  155.6518 O.2     1  UNL1       -0.2701
     22 H         144.6270  136.0276  156.5892 H       1  UNL1        0.1497
     23 C         143.2694  133.7966  155.6413 C.ar    1  UNL1        0.0534
     24 C         144.2639  133.1757  156.5768 C.ar    1  UNL1        0.0054
     25 C         144.7798  131.7921  156.3128 C.ar    1  UNL1        0.0115
     26 C         144.3010  131.0295  155.1132 C.ar    1  UNL1        0.0577
     27 CL        144.8168  129.6460  154.8491 Cl      1  UNL1       -0.0822
     28 C         143.3064  131.6504  154.1776 C.ar    1  UNL1        0.0115
     29 C         142.7906  133.0340  154.4417 C.ar    1  UNL1        0.0054
     30 C         144.7343  138.8083  154.9891 C.3     1  UNL1        0.0017
     31 C         143.4123  138.7189  155.6924 C.3     1  UNL1        0.0196
@<TRIPOS>BOND
     1    30    31    1
     2    18    31    1
     3    18    19    1
     4    19    20   am
     5    20    21    2
     6    20    23    1
     7    23    24   ar
     8    24    25   ar
     9    25    26   ar
    10    26    27    1
    11    26    28   ar
    12    28    29   ar
    13     1    18    1
    14     1     2    1
    15     2     3    1
    16     3     4    1
    17     4     7    1
    18     7     8   ar
    19     8     9   ar
    20     9    10   ar
    21    10    11   ar
    22    11    12   ar
    23    12    13    1
    24    12    14   ar
    25    14    15    1
    26    14    16   ar
    27    16    17   ar
    28     4     5    1
    29     6     5    1
    30    29    23   ar
    31     6     1    1
    32     6     2    1
    33    17     7   ar
    34    17    10   ar
    35    19    22    1
@<TRIPOS>MOLECULE
*****
 31 35 0 0 0
SMALL
GASTEIGER

@<TRIPOS>ATOM
      1 C         140.1969  138.5395  158.2026 C.3     1  UNL1        0.0181
      2 C         139.9266  138.4707  159.6765 C.3     1  UNL1        0.0036
      3 C         139.8150  138.6721  161.1587 C.3     1  UNL1        0.0227
      4 C         140.5181  139.9506  161.5069 C.3     1  UNL1        0.0870
      5 C         141.0642  140.5393  160.2399 C.3     1  UNL1        0.0227
      6 C         140.6986  139.6246  159.1086 C.3     1  UNL1        0.0036
      7 N         140.6517  140.5373  162.8809 N.ar    1  UNL1       -0.3109
      8 C         141.5121  140.0037  163.9877 C.ar    1  UNL1        0.1785
      9 N         141.3404  140.8973  165.1802 N.ar    1  UNL1       -0.2239
     10 C         140.3739  141.9832  164.8104 C.ar    1  UNL1        0.1011
     11 C         139.8264  143.1458  165.5840 C.ar    1  UNL1        0.0526
     12 C         138.8533  144.0860  164.9367 C.ar    1  UNL1        0.1690
     13 F         138.3058  145.2486  165.7103 F       1  UNL1       -0.2017
     14 C         138.4276  143.8636  163.5156 C.ar    1  UNL1        0.1689
     15 F         137.4545  144.8037  162.8683 F       1  UNL1       -0.2017
     16 C         138.9751  142.7009  162.7420 C.ar    1  UNL1        0.0507
     17 C         139.9482  141.7607  163.3894 C.ar    1  UNL1        0.0813
     18 C         140.0633  137.9527  156.8287 C.3     1  UNL1        0.0718
     19 N         140.6301  136.5954  156.5345 N.am    1  UNL1       -0.3025
     20 C         142.1161  136.3987  156.4807 C.2     1  UNL1        0.2458
     21 O         143.0355  137.5592  156.7210 O.2     1  UNL1       -0.2701
     22 H         140.0267  135.8336  156.3767 H       1  UNL1        0.1497
     23 C         142.6828  135.0413  156.1865 C.ar    1  UNL1        0.0534
     24 C         143.5694  134.3652  157.1898 C.ar    1  UNL1        0.0054
     25 C         144.1362  133.0079  156.8956 C.ar    1  UNL1        0.0115
     26 C         143.8162  132.3267  155.5981 C.ar    1  UNL1        0.0577
     27 CL        144.3829  130.9694  155.3038 Cl      1  UNL1       -0.0822
     28 C         142.9295  133.0028  154.5947 C.ar    1  UNL1        0.0115
     29 C         142.3628  134.3601  154.8890 C.ar    1  UNL1        0.0054
     30 C         138.4921  139.8912  156.1052 C.3     1  UNL1        0.0017
     31 C         139.3630  138.7231  155.7488 C.3     1  UNL1        0.0196
@<TRIPOS>BOND
     1    30    31    1
     2    18    31    1
     3    18    19    1
     4    19    20   am
     5    20    21    2
     6    20    23    1
     7    23    24   ar
     8    24    25   ar
     9    25    26   ar
    10    26    27    1
    11    26    28   ar
    12    28    29   ar
    13     1    18    1
    14     1     2    1
    15     2     3    1
    16     3     4    1
    17     4     7    1
    18     7     8   ar
    19     8     9   ar
    20     9    10   ar
    21    10    11   ar
    22    11    12   ar
    23    12    13    1
    24    12    14   ar
    25    14    15    1
    26    14    16   ar
    27    16    17   ar
    28     4     5    1
    29     6     5    1
    30    29    23   ar
    31     6     1    1
    32     6     2    1
    33    17     7   ar
    34    17    10   ar
    35    19    22    1
@<TRIPOS>MOLECULE
*****
 31 35 0 0 0
SMALL
GASTEIGER

@<TRIPOS>ATOM
      1 C         141.9819  137.9242  158.0998 C.3     1  UNL1        0.0181
      2 C         141.6033  138.7918  159.2634 C.3     1  UNL1        0.0036
      3 C         141.4671  139.5192  160.5682 C.3     1  UNL1        0.0227
      4 C         142.5476  139.0300  161.4865 C.3     1  UNL1        0.0870
      5 C         143.3516  138.0003  160.7494 C.3     1  UNL1        0.0227
      6 C         142.7679  137.8531  159.3753 C.3     1  UNL1        0.0036
      7 N         142.7828  139.4898  162.8948 N.ar    1  UNL1       -0.3109
      8 C         142.5487  138.6820  164.1368 C.ar    1  UNL1        0.1785
      9 N         142.9146  139.5312  165.3179 N.ar    1  UNL1       -0.2239
     10 C         143.3749  140.8638  164.8058 C.ar    1  UNL1        0.1011
     11 C         143.8577  142.0972  165.5098 C.ar    1  UNL1        0.0526
     12 C         144.2590  143.3052  164.7161 C.ar    1  UNL1        0.1690
     13 F         144.7418  144.5386  165.4200 F       1  UNL1       -0.2017
     14 C         144.1776  143.2797  163.2186 C.ar    1  UNL1        0.1689
     15 F         144.5789  144.4876  162.4249 F       1  UNL1       -0.2017
     16 C         143.6948  142.0462  162.5146 C.ar    1  UNL1        0.0507
     17 C         143.2935  140.8383  163.3083 C.ar    1  UNL1        0.0813
     18 C         141.7466  137.4645  156.6915 C.3     1  UNL1        0.0718
     19 N         141.9275  136.0188  156.3344 N.am    1  UNL1       -0.3025
     20 C         143.2730  135.5156  155.9028 C.2     1  UNL1        0.2458
     21 O         144.4377  136.4579  155.8283 O.2     1  UNL1       -0.2701
     22 H         141.1631  135.4003  156.3833 H       1  UNL1        0.1497
     23 C         143.4539  134.0699  155.5457 C.ar    1  UNL1        0.0534
     24 C         142.7307  133.4928  154.3651 C.ar    1  UNL1        0.0054
     25 C         142.9116  132.0472  154.0080 C.ar    1  UNL1        0.0115
     26 C         143.8158  131.1787  154.8316 C.ar    1  UNL1        0.0577
     27 CL        143.9967  129.7331  154.4746 Cl      1  UNL1       -0.0822
     28 C         144.5390  131.7559  156.0123 C.ar    1  UNL1        0.0115
     29 C         144.3580  133.2015  156.3693 C.ar    1  UNL1        0.0054
     30 C         141.8697  139.8496  155.6688 C.3     1  UNL1        0.0017
     31 C         141.3304  138.4502  155.6403 C.3     1  UNL1        0.0196
@<TRIPOS>BOND
     1    30    31    1
     2    18    31    1
     3    18    19    1
     4    19    20   am
     5    20    21    2
     6    20    23    1
     7    23    24   ar
     8    24    25   ar
     9    25    26   ar
    10    26    27    1
    11    26    28   ar
    12    28    29   ar
    13     1    18    1
    14     1     2    1
    15     2     3    1
    16     3     4    1
    17     4     7    1
    18     7     8   ar
    19     8     9   ar
    20     9    10   ar
    21    10    11   ar
    22    11    12   ar
    23    12    13    1
    24    12    14   ar
    25    14    15    1
    26    14    16   ar
    27    16    17   ar
    28     4     5    1
    29     6     5    1
    30    29    23   ar
    31     6     1    1
    32     6     2    1
    33    17     7   ar
    34    17    10   ar
    35    19    22    1
@<TRIPOS>MOLECULE
*****
 31 35 0 0 0
SMALL
GASTEIGER

@<TRIPOS>ATOM
      1 C         138.3736  141.2208  157.1806 C.3     1  UNL1        0.0181
      2 C         138.6007  140.5525  158.5043 C.3     1  UNL1        0.0036
      3 C         139.1311  139.9216  159.7575 C.3     1  UNL1        0.0227
      4 C         140.6294  139.9605  159.6978 C.3     1  UNL1        0.0870
      5 C         141.0250  140.6155  158.4076 C.3     1  UNL1        0.0227
      6 C         139.7712  140.9814  157.6699 C.3     1  UNL1        0.0036
      7 N         141.5674  139.4365  160.7445 N.ar    1  UNL1       -0.3109
      8 C         141.5464  138.0586  161.3369 C.ar    1  UNL1        0.1785
      9 N         142.6571  137.9690  162.3411 N.ar    1  UNL1       -0.2239
     10 C         143.3645  139.2914  162.3692 C.ar    1  UNL1        0.1011
     11 C         144.5348  139.7868  163.1659 C.ar    1  UNL1        0.0526
     12 C         145.0318  141.1893  162.9758 C.ar    1  UNL1        0.1690
     13 F         146.2022  141.6848  163.7725 F       1  UNL1       -0.2017
     14 C         144.3583  142.0964  161.9890 C.ar    1  UNL1        0.1689
     15 F         144.8552  143.4988  161.7989 F       1  UNL1       -0.2017
     16 C         143.1879  141.6009  161.1923 C.ar    1  UNL1        0.0507
     17 C         142.6910  140.1984  161.3825 C.ar    1  UNL1        0.0813
     18 C         137.4355  141.7448  156.1340 C.3     1  UNL1        0.0718
     19 N         135.9529  141.6608  156.3460 N.am    1  UNL1       -0.3025
     20 C         135.2125  140.4090  155.9793 C.2     1  UNL1        0.2458
     21 O         135.9546  139.2409  155.4006 O.2     1  UNL1       -0.2701
     22 H         135.4658  142.4274  156.7258 H       1  UNL1        0.1497
     23 C         133.7299  140.3251  156.1913 C.ar    1  UNL1        0.0534
     24 C         132.8133  141.2582  155.4572 C.ar    1  UNL1        0.0054
     25 C         131.3307  141.1743  155.6692 C.ar    1  UNL1        0.0115
     26 C         130.7648  140.1571  156.6153 C.ar    1  UNL1        0.0577
     27 CL        129.2822  140.0731  156.8273 Cl      1  UNL1       -0.0822
     28 C         131.6815  139.2239  157.3494 C.ar    1  UNL1        0.0115
     29 C         133.1640  139.3079  157.1374 C.ar    1  UNL1        0.0054
     30 C         137.4628  141.9035  153.5409 C.3     1  UNL1        0.0017
     31 C         137.9799  142.3527  154.8754 C.3     1  UNL1        0.0196
@<TRIPOS>BOND
     1    30    31    1
     2    18    31    1
     3    18    19    1
     4    19    20   am
     5    20    21    2
     6    20    23    1
     7    23    24   ar
     8    24    25   ar
     9    25    26   ar
    10    26    27    1
    11    26    28   ar
    12    28    29   ar
    13     1    18    1
    14     1     2    1
    15     2     3    1
    16     3     4    1
    17     4     7    1
    18     7     8   ar
    19     8     9   ar
    20     9    10   ar
    21    10    11   ar
    22    11    12   ar
    23    12    13    1
    24    12    14   ar
    25    14    15    1
    26    14    16   ar
    27    16    17   ar
    28     4     5    1
    29     6     5    1
    30    29    23   ar
    31     6     1    1
    32     6     2    1
    33    17     7   ar
    34    17    10   ar
    35    19    22    1
