@<TRIPOS>MOLECULE
*****
 40 45 0 0 0
SMALL
GASTEIGER

@<TRIPOS>ATOM
      1 C         139.8379  139.4131  163.0936 C.ar    1  UNL1        0.1472
      2 N         140.9114  138.5211  162.5438 N.ar    1  UNL1       -0.2248
      3 C         141.1701  138.4817  161.0668 C.ar    1  UNL1        0.1260
      4 C         142.1533  137.7069  160.2405 C.ar    1  UNL1        0.1212
      5 N         141.9463  138.0805  158.8026 N.ar    1  UNL1       -0.2264
      6 N         140.8351  139.0862  158.7403 N.ar    1  UNL1       -0.1586
      7 C         140.3554  139.3342  160.1397 C.ar    1  UNL1        0.1762
      8 C         139.2820  140.2261  160.6895 C.ar    1  UNL1        0.2829
      9 O         138.4673  141.0785  159.7624 O.2     1  UNL1       -0.2652
     10 N         139.0233  140.2655  162.1665 N.ar    1  UNL1       -0.2792
     11 C         141.6043  141.0498  164.8827 C.3     1  UNL1        0.0522
     12 C         140.4624  140.2709  165.4652 C.ar    1  UNL1        0.0623
     13 N         140.2036  140.3103  166.9422 N.ar    1  UNL1       -0.2480
     14 C         139.0617  139.5314  167.5246 C.ar    1  UNL1        0.0984
     15 C         138.1784  138.7130  166.6301 C.ar    1  UNL1        0.0208
     16 C         138.4372  138.6736  165.1531 C.ar    1  UNL1        0.0058
     17 C         139.5791  139.4525  164.5707 C.ar    1  UNL1        0.0478
     18 C         142.7154  137.5428  157.6324 C.ar    1  UNL1        0.0859
     19 C         143.2552  138.4816  156.5944 C.ar    1  UNL1        0.0194
     20 C         144.0243  137.9438  155.4242 C.ar    1  UNL1        0.0047
     21 C         144.2536  136.4673  155.2920 C.ar    1  UNL1        0.0370
     22 C         143.7138  135.5286  156.3299 C.ar    1  UNL1        0.1399
     23 C         142.9447  136.0664  157.5001 C.ar    1  UNL1        0.0560
     24 O         143.9431  134.0521  156.1978 O.3     1  UNL1       -0.4791
     25 C         142.9536  133.2030  155.4561 C.3     1  UNL1        0.1661
     26 C         141.6419  133.7863  155.0214 C.3     1  UNL1        0.0472
     27 C         143.2760  131.7706  155.1491 C.3     1  UNL1        0.0472
     28 C         137.9498  141.1574  162.7163 C.3     1  UNL1        0.1119
     29 C         138.3160  142.4576  163.3684 C.3     1  UNL1        0.0388
     30 C         137.4942  142.9827  164.5082 C.3     1  UNL1        0.0048
     31 C         137.8605  144.2829  165.1603 C.3     1  UNL1        0.0174
     32 C         139.0486  145.0581  164.6727 C.3     1  UNL1        0.0722
     33 N         139.8703  144.5330  163.5329 N.3     1  UNL1       -0.2706
     34 C         139.5040  143.2327  162.8808 C.3     1  UNL1        0.0741
     35 C         141.0584  145.3082  163.0454 C.3     1  UNL1        0.1020
     36 C         142.4086  144.6571  162.9930 C.3     1  UNL1        0.1312
     37 C         143.2107  144.1943  164.1730 C.3     1  UNL1        0.0336
     38 C         144.4918  143.6057  163.6607 C.3     1  UNL1        0.0346
     39 C         144.4814  143.7047  162.1640 C.3     1  UNL1        0.1422
     40 O         143.1939  144.3545  161.7513 O.3     1  UNL1       -0.3548
@<TRIPOS>BOND
     1    11    12    1
     2    12    13   ar
     3    13    14   ar
     4    14    15   ar
     5    15    16   ar
     6    16    17   ar
     7    17     1    1
     8     1     2   ar
     9     2     3   ar
    10     3     4   ar
    11     4     5   ar
    12     5    18    1
    13    18    19   ar
    14    19    20   ar
    15    20    21   ar
    16    21    22   ar
    17    22    24    1
    18    24    25    1
    19    25    26    1
    20    25    27    1
    21    22    23   ar
    22     5     6   ar
    23     6     7   ar
    24     7     8   ar
    25     8     9    2
    26     8    10   ar
    27    10    28    1
    28    29    28    1
    29    29    30    1
    30    30    31    1
    31    31    32    1
    32    32    33    1
    33    33    35    1
    34    36    35    1
    35    36    37    1
    36    37    38    1
    37    38    39    1
    38    39    40    1
    39    33    34    1
    40    17    12   ar
    41    10     1   ar
    42    34    29    1
    43     7     3   ar
    44    40    36    1
    45    23    18   ar
@<TRIPOS>MOLECULE
*****
 40 45 0 0 0
SMALL
GASTEIGER

@<TRIPOS>ATOM
      1 C         140.4754  141.2473  162.3669 C.ar    1  UNL1        0.1472
      2 N         140.2841  141.1609  160.8816 N.ar    1  UNL1       -0.2248
      3 C         140.8810  140.0189  160.1137 C.ar    1  UNL1        0.1260
      4 C         140.8602  139.6706  158.6549 C.ar    1  UNL1        0.1212
      5 N         141.6354  138.3998  158.4707 N.ar    1  UNL1       -0.2264
      6 N         142.1353  137.9626  159.8157 N.ar    1  UNL1       -0.1586
      7 C         141.6690  138.9633  160.8312 C.ar    1  UNL1        0.1762
      8 C         141.8602  139.0498  162.3164 C.ar    1  UNL1        0.2829
      9 O         142.6483  137.9942  163.0338 O.2     1  UNL1       -0.2652
     10 N         141.2634  140.1918  163.0842 N.ar    1  UNL1       -0.2792
     11 C         137.5537  141.2328  163.0477 C.3     1  UNL1        0.0522
     12 C         138.4176  142.3821  163.4752 C.ar    1  UNL1        0.0623
     13 N         137.8208  143.5241  164.2430 N.ar    1  UNL1       -0.2480
     14 C         138.6848  144.6734  164.6704 C.ar    1  UNL1        0.0984
     15 C         140.1456  144.6807  164.3300 C.ar    1  UNL1        0.0208
     16 C         140.7425  143.5387  163.5621 C.ar    1  UNL1        0.0058
     17 C         139.8785  142.3894  163.1347 C.ar    1  UNL1        0.0478
     18 C         141.8696  137.6905  157.1699 C.ar    1  UNL1        0.0859
     19 C         141.1732  138.1563  155.9257 C.ar    1  UNL1        0.0194
     20 C         141.4075  137.4470  154.6249 C.ar    1  UNL1        0.0047
     21 C         142.3381  136.2720  154.5683 C.ar    1  UNL1        0.0370
     22 C         143.0345  135.8062  155.8125 C.ar    1  UNL1        0.1399
     23 C         142.8002  136.5155  157.1133 C.ar    1  UNL1        0.0560
     24 O         143.9651  134.6311  155.7560 O.3     1  UNL1       -0.4791
     25 C         143.6225  133.3673  156.4877 C.3     1  UNL1        0.1661
     26 C         144.5222  132.8642  157.5773 C.3     1  UNL1        0.0472
     27 C         142.3802  132.6067  156.1298 C.3     1  UNL1        0.0472
     28 C         141.4546  140.2781  164.5695 C.3     1  UNL1        0.1119
     29 C         140.3635  139.8254  165.4938 C.3     1  UNL1        0.0388
     30 C         139.3013  138.8892  164.9984 C.3     1  UNL1        0.0048
     31 C         138.2102  138.4364  165.9227 C.3     1  UNL1        0.0174
     32 C         138.1812  138.9198  167.3425 C.3     1  UNL1        0.0722
     33 N         139.2434  139.8559  167.8379 N.3     1  UNL1       -0.2706
     34 C         140.3346  140.3087  166.9135 C.3     1  UNL1        0.0741
     35 C         139.2144  140.3392  169.2576 C.3     1  UNL1        0.1020
     36 C         140.2251  141.3421  169.7292 C.3     1  UNL1        0.1312
     37 C         140.2284  142.8078  169.4097 C.3     1  UNL1        0.0336
     38 C         141.4153  143.4270  170.0862 C.3     1  UNL1        0.0346
     39 C         142.1457  142.3441  170.8238 C.3     1  UNL1        0.1422
     40 O         141.4101  141.0556  170.6032 O.3     1  UNL1       -0.3548
@<TRIPOS>BOND
     1    11    12    1
     2    12    13   ar
     3    13    14   ar
     4    14    15   ar
     5    15    16   ar
     6    16    17   ar
     7    17     1    1
     8     1     2   ar
     9     2     3   ar
    10     3     4   ar
    11     4     5   ar
    12     5    18    1
    13    18    19   ar
    14    19    20   ar
    15    20    21   ar
    16    21    22   ar
    17    22    24    1
    18    24    25    1
    19    25    26    1
    20    25    27    1
    21    22    23   ar
    22     5     6   ar
    23     6     7   ar
    24     7     8   ar
    25     8     9    2
    26     8    10   ar
    27    10    28    1
    28    29    28    1
    29    29    30    1
    30    30    31    1
    31    31    32    1
    32    32    33    1
    33    33    35    1
    34    36    35    1
    35    36    37    1
    36    37    38    1
    37    38    39    1
    38    39    40    1
    39    33    34    1
    40    17    12   ar
    41    10     1   ar
    42    34    29    1
    43     7     3   ar
    44    40    36    1
    45    23    18   ar
@<TRIPOS>MOLECULE
*****
 40 45 0 0 0
SMALL
GASTEIGER

@<TRIPOS>ATOM
      1 C         141.2362  141.2233  162.1008 C.ar    1  UNL1        0.1472
      2 N         141.1031  140.9522  160.6314 N.ar    1  UNL1       -0.2248
      3 C         139.8985  141.4431  159.8844 C.ar    1  UNL1        0.1260
      4 C         139.4951  141.3284  158.4442 C.ar    1  UNL1        0.1212
      5 N         138.1744  142.0194  158.2764 N.ar    1  UNL1       -0.2264
      6 N         137.7615  142.5611  159.6129 N.ar    1  UNL1       -0.1586
      7 C         138.8271  142.2050  160.6067 C.ar    1  UNL1        0.1762
      8 C         138.9603  142.4760  162.0759 C.ar    1  UNL1        0.2829
      9 O         137.8889  143.2379  162.7982 O.2     1  UNL1       -0.2652
     10 N         140.1648  141.9851  162.8230 N.ar    1  UNL1       -0.2792
     11 C         141.2840  138.4332  163.2021 C.3     1  UNL1        0.0522
     12 C         142.4647  139.3373  163.3985 C.ar    1  UNL1        0.0623
     13 N         143.6693  138.8465  164.1456 N.ar    1  UNL1       -0.2480
     14 C         144.8499  139.7507  164.3419 C.ar    1  UNL1        0.0984
     15 C         144.8260  141.1457  163.7913 C.ar    1  UNL1        0.0208
     16 C         143.6214  141.6366  163.0442 C.ar    1  UNL1        0.0058
     17 C         142.4408  140.7324  162.8479 C.ar    1  UNL1        0.0478
     18 C         137.4020  142.1463  156.9968 C.ar    1  UNL1        0.0859
     19 C         137.6436  143.3147  156.0877 C.ar    1  UNL1        0.0194
     20 C         136.8712  143.4415  154.8081 C.ar    1  UNL1        0.0047
     21 C         135.8573  142.4001  154.4376 C.ar    1  UNL1        0.0370
     22 C         135.6156  141.2317  155.3467 C.ar    1  UNL1        0.1399
     23 C         136.3880  141.1049  156.6263 C.ar    1  UNL1        0.0560
     24 O         134.6017  140.1903  154.9764 O.3     1  UNL1       -0.4791
     25 C         133.3126  140.0946  155.7374 C.3     1  UNL1        0.1661
     26 C         132.3256  141.2228  155.6857 C.3     1  UNL1        0.0472
     27 C         133.0106  138.8706  156.5502 C.3     1  UNL1        0.0472
     28 C         140.2979  142.2562  164.2923 C.3     1  UNL1        0.1119
     29 C         139.7408  141.2826  165.2881 C.3     1  UNL1        0.0388
     30 C         138.6832  140.3045  164.8698 C.3     1  UNL1        0.0048
     31 C         138.1261  139.3309  165.8656 C.3     1  UNL1        0.0174
     32 C         138.6264  139.3354  167.2797 C.3     1  UNL1        0.0722
     33 N         139.6839  140.3135  167.6980 N.3     1  UNL1       -0.2706
     34 C         140.2411  141.2871  166.7021 C.3     1  UNL1        0.0741
     35 C         140.1842  140.3180  169.1121 C.3     1  UNL1        0.1020
     36 C         141.3465  141.1859  169.4937 C.3     1  UNL1        0.1312
     37 C         142.7958  140.8613  169.2836 C.3     1  UNL1        0.0336
     38 C         143.6086  142.0058  169.8125 C.3     1  UNL1        0.0346
     39 C         142.6616  143.0377  170.3495 C.3     1  UNL1        0.1422
     40 O         141.2635  142.5310  170.1525 O.3     1  UNL1       -0.3548
@<TRIPOS>BOND
     1    11    12    1
     2    12    13   ar
     3    13    14   ar
     4    14    15   ar
     5    15    16   ar
     6    16    17   ar
     7    17     1    1
     8     1     2   ar
     9     2     3   ar
    10     3     4   ar
    11     4     5   ar
    12     5    18    1
    13    18    19   ar
    14    19    20   ar
    15    20    21   ar
    16    21    22   ar
    17    22    24    1
    18    24    25    1
    19    25    26    1
    20    25    27    1
    21    22    23   ar
    22     5     6   ar
    23     6     7   ar
    24     7     8   ar
    25     8     9    2
    26     8    10   ar
    27    10    28    1
    28    29    28    1
    29    29    30    1
    30    30    31    1
    31    31    32    1
    32    32    33    1
    33    33    35    1
    34    36    35    1
    35    36    37    1
    36    37    38    1
    37    38    39    1
    38    39    40    1
    39    33    34    1
    40    17    12   ar
    41    10     1   ar
    42    34    29    1
    43     7     3   ar
    44    40    36    1
    45    23    18   ar
@<TRIPOS>MOLECULE
*****
 40 45 0 0 0
SMALL
GASTEIGER

@<TRIPOS>ATOM
      1 C         142.8480  139.2383  160.5354 C.ar    1  UNL1        0.1472
      2 N         143.4546  138.4009  159.4487 N.ar    1  UNL1       -0.2248
      3 C         142.5878  137.8451  158.3580 C.ar    1  UNL1        0.1260
      4 C         142.9001  136.9931  157.1636 C.ar    1  UNL1        0.1212
      5 N         141.6198  136.7482  156.4214 N.ar    1  UNL1       -0.2264
      6 N         140.5162  137.4489  157.1570 N.ar    1  UNL1       -0.1586
      7 C         141.1145  138.1268  158.3539 C.ar    1  UNL1        0.1762
      8 C         140.5080  138.9643  159.4406 C.ar    1  UNL1        0.2829
      9 O         139.0347  139.2460  159.4365 O.2     1  UNL1       -0.2652
     10 N         141.3748  139.5200  160.5313 N.ar    1  UNL1       -0.2792
     11 C         144.1751  141.9059  160.1845 C.3     1  UNL1        0.0522
     12 C         144.3785  141.1279  161.4507 C.ar    1  UNL1        0.0623
     13 N         145.2453  141.6836  162.5415 N.ar    1  UNL1       -0.2480
     14 C         145.4486  140.9056  163.8077 C.ar    1  UNL1        0.0984
     15 C         144.7851  139.5718  163.9832 C.ar    1  UNL1        0.0208
     16 C         143.9182  139.0161  162.8925 C.ar    1  UNL1        0.0058
     17 C         143.7149  139.7941  161.6262 C.ar    1  UNL1        0.0478
     18 C         141.4695  135.9439  155.1643 C.ar    1  UNL1        0.0859
     19 C         140.6292  136.4651  154.0364 C.ar    1  UNL1        0.0194
     20 C         140.4789  135.6607  152.7792 C.ar    1  UNL1        0.0047
     21 C         141.1689  134.3351  152.6500 C.ar    1  UNL1        0.0370
     22 C         142.0092  133.8139  153.7779 C.ar    1  UNL1        0.1399
     23 C         142.1595  134.6183  155.0350 C.ar    1  UNL1        0.0560
     24 O         142.6993  132.4883  153.6487 O.3     1  UNL1       -0.4791
     25 C         142.9532  131.6531  154.8685 C.3     1  UNL1        0.1661
     26 C         141.8634  130.7840  155.4226 C.3     1  UNL1        0.0472
     27 C         144.2970  131.6869  155.5341 C.3     1  UNL1        0.0472
     28 C         140.7683  140.3575  161.6180 C.3     1  UNL1        0.1119
     29 C         140.2690  139.7085  162.8748 C.3     1  UNL1        0.0388
     30 C         139.7879  138.2880  162.8453 C.3     1  UNL1        0.0048
     31 C         139.2887  137.6391  164.1021 C.3     1  UNL1        0.0174
     32 C         139.2705  138.4106  165.3884 C.3     1  UNL1        0.0722
     33 N         139.7516  139.8310  165.4179 N.3     1  UNL1       -0.2706
     34 C         140.2509  140.4799  164.1611 C.3     1  UNL1        0.0741
     35 C         139.7334  140.6024  166.7042 C.3     1  UNL1        0.1020
     36 C         140.5910  140.1638  167.8540 C.3     1  UNL1        0.1312
     37 C         142.0763  139.9574  167.8177 C.3     1  UNL1        0.0336
     38 C         142.5171  139.5205  169.1833 C.3     1  UNL1        0.0346
     39 C         141.3042  139.4569  170.0636 C.3     1  UNL1        0.1422
     40 O         140.1138  139.8544  169.2421 O.3     1  UNL1       -0.3548
@<TRIPOS>BOND
     1    11    12    1
     2    12    13   ar
     3    13    14   ar
     4    14    15   ar
     5    15    16   ar
     6    16    17   ar
     7    17     1    1
     8     1     2   ar
     9     2     3   ar
    10     3     4   ar
    11     4     5   ar
    12     5    18    1
    13    18    19   ar
    14    19    20   ar
    15    20    21   ar
    16    21    22   ar
    17    22    24    1
    18    24    25    1
    19    25    26    1
    20    25    27    1
    21    22    23   ar
    22     5     6   ar
    23     6     7   ar
    24     7     8   ar
    25     8     9    2
    26     8    10   ar
    27    10    28    1
    28    29    28    1
    29    29    30    1
    30    30    31    1
    31    31    32    1
    32    32    33    1
    33    33    35    1
    34    36    35    1
    35    36    37    1
    36    37    38    1
    37    38    39    1
    38    39    40    1
    39    33    34    1
    40    17    12   ar
    41    10     1   ar
    42    34    29    1
    43     7     3   ar
    44    40    36    1
    45    23    18   ar
@<TRIPOS>MOLECULE
*****
 40 45 0 0 0
SMALL
GASTEIGER

@<TRIPOS>ATOM
      1 C         140.3483  140.2467  159.9314 C.ar    1  UNL1        0.1472
      2 N         139.7246  139.2631  158.9860 N.ar    1  UNL1       -0.2248
      3 C         140.5916  138.4440  158.0764 C.ar    1  UNL1        0.1260
      4 C         140.2646  137.4034  157.0468 C.ar    1  UNL1        0.1212
      5 N         141.5531  136.9246  156.4463 N.ar    1  UNL1       -0.2264
      6 N         142.6764  137.6693  157.1048 N.ar    1  UNL1       -0.1586
      7 C         142.0821  138.6083  158.1123 C.ar    1  UNL1        0.1762
      8 C         142.7057  139.5919  159.0577 C.ar    1  UNL1        0.2829
      9 O         144.1962  139.7562  159.0936 O.2     1  UNL1       -0.2652
     10 N         141.8387  140.4110  159.9673 N.ar    1  UNL1       -0.2792
     11 C         139.3332  142.9215  159.0286 C.3     1  UNL1        0.0522
     12 C         138.9737  142.4033  160.3896 C.ar    1  UNL1        0.0623
     13 N         138.1067  143.2224  161.2992 N.ar    1  UNL1       -0.2480
     14 C         137.7473  142.7042  162.6602 C.ar    1  UNL1        0.0984
     15 C         138.2548  141.3668  163.1116 C.ar    1  UNL1        0.0208
     16 C         139.1218  140.5476  162.2020 C.ar    1  UNL1        0.0058
     17 C         139.4812  141.0659  160.8410 C.ar    1  UNL1        0.0478
     18 C         141.6936  135.8838  155.3753 C.ar    1  UNL1        0.0859
     19 C         141.6028  136.2772  153.9307 C.ar    1  UNL1        0.0194
     20 C         141.7434  135.2363  152.8597 C.ar    1  UNL1        0.0047
     21 C         141.9748  133.8021  153.2334 C.ar    1  UNL1        0.0370
     22 C         142.0656  133.4088  154.6780 C.ar    1  UNL1        0.1399
     23 C         141.9250  134.4496  155.7489 C.ar    1  UNL1        0.0560
     24 O         142.2970  131.9746  155.0517 O.3     1  UNL1       -0.4791
     25 C         143.6617  131.3709  154.8998 C.3     1  UNL1        0.1661
     26 C         143.9628  130.4827  153.7292 C.3     1  UNL1        0.0472
     27 C         144.7253  131.6553  155.9186 C.3     1  UNL1        0.0472
     28 C         142.4623  141.3946  160.9127 C.3     1  UNL1        0.1119
     29 C         143.2347  140.9056  162.1019 C.3     1  UNL1        0.0388
     30 C         144.6492  141.3572  162.3149 C.3     1  UNL1        0.0048
     31 C         145.4216  140.8683  163.5041 C.3     1  UNL1        0.0174
     32 C         144.7796  139.9275  164.4803 C.3     1  UNL1        0.0722
     33 N         143.3652  139.4759  164.2673 N.3     1  UNL1       -0.2706
     34 C         142.5928  139.9649  163.0781 C.3     1  UNL1        0.0741
     35 C         142.7232  138.5352  165.2436 C.3     1  UNL1        0.1020
     36 C         141.2284  138.4388  165.3200 C.3     1  UNL1        0.1312
     37 C         140.3774  137.3932  164.6622 C.3     1  UNL1        0.0336
     38 C         138.9450  137.6793  165.0033 C.3     1  UNL1        0.0346
     39 C         138.9106  138.9016  165.8721 C.3     1  UNL1        0.1422
     40 O         140.3218  139.3710  166.0679 O.3     1  UNL1       -0.3548
@<TRIPOS>BOND
     1    11    12    1
     2    12    13   ar
     3    13    14   ar
     4    14    15   ar
     5    15    16   ar
     6    16    17   ar
     7    17     1    1
     8     1     2   ar
     9     2     3   ar
    10     3     4   ar
    11     4     5   ar
    12     5    18    1
    13    18    19   ar
    14    19    20   ar
    15    20    21   ar
    16    21    22   ar
    17    22    24    1
    18    24    25    1
    19    25    26    1
    20    25    27    1
    21    22    23   ar
    22     5     6   ar
    23     6     7   ar
    24     7     8   ar
    25     8     9    2
    26     8    10   ar
    27    10    28    1
    28    29    28    1
    29    29    30    1
    30    30    31    1
    31    31    32    1
    32    32    33    1
    33    33    35    1
    34    36    35    1
    35    36    37    1
    36    37    38    1
    37    38    39    1
    38    39    40    1
    39    33    34    1
    40    17    12   ar
    41    10     1   ar
    42    34    29    1
    43     7     3   ar
    44    40    36    1
    45    23    18   ar
@<TRIPOS>MOLECULE
*****
 40 45 0 0 0
SMALL
GASTEIGER

@<TRIPOS>ATOM
      1 C         142.8990  143.0343  161.3635 C.ar    1  UNL1        0.1472
      2 N         143.2161  143.0295  159.8974 N.ar    1  UNL1       -0.2248
      3 C         142.5060  143.9740  158.9735 C.ar    1  UNL1        0.1260
      4 C         142.6076  144.1966  157.4936 C.ar    1  UNL1        0.1212
      5 N         141.6433  145.2835  157.1211 N.ar    1  UNL1       -0.2264
      6 N         140.9457  145.7326  158.3708 N.ar    1  UNL1       -0.1586
      7 C         141.4789  144.9233  159.5156 C.ar    1  UNL1        0.1762
      8 C         141.1619  144.9281  160.9817 C.ar    1  UNL1        0.2829
      9 O         140.1348  145.8774  161.5239 O.2     1  UNL1       -0.2652
     10 N         141.8719  143.9835  161.9056 N.ar    1  UNL1       -0.2792
     11 C         141.8078  140.2771  161.8187 C.3     1  UNL1        0.0522
     12 C         143.0635  140.7111  162.5152 C.ar    1  UNL1        0.0623
     13 N         143.7735  139.7666  163.4391 N.ar    1  UNL1       -0.2480
     14 C         145.0292  140.2007  164.1355 C.ar    1  UNL1        0.0984
     15 C         145.5748  141.5793  163.9079 C.ar    1  UNL1        0.0208
     16 C         144.8647  142.5238  162.9839 C.ar    1  UNL1        0.0058
     17 C         143.6091  142.0897  162.2876 C.ar    1  UNL1        0.0478
     18 C         141.4164  145.8261  155.7412 C.ar    1  UNL1        0.0859
     19 C         142.1517  145.2377  154.5736 C.ar    1  UNL1        0.0194
     20 C         141.9247  145.7804  153.1937 C.ar    1  UNL1        0.0047
     21 C         140.9625  146.9113  152.9814 C.ar    1  UNL1        0.0370
     22 C         140.2272  147.4997  154.1489 C.ar    1  UNL1        0.1399
     23 C         140.4542  146.9571  155.5288 C.ar    1  UNL1        0.0560
     24 O         139.2651  148.6307  153.9367 O.3     1  UNL1       -0.4791
     25 C         139.3836  149.8803  154.7579 C.3     1  UNL1        0.1661
     26 C         140.4650  150.8754  154.4575 C.3     1  UNL1        0.0472
     27 C         138.4208  150.1348  155.8796 C.3     1  UNL1        0.0472
     28 C         141.5548  143.9884  163.3718 C.3     1  UNL1        0.1119
     29 C         140.5149  143.0552  163.9173 C.3     1  UNL1        0.0388
     30 C         139.1120  143.1039  163.3884 C.3     1  UNL1        0.0048
     31 C         138.0721  142.1708  163.9339 C.3     1  UNL1        0.0174
     32 C         138.4349  141.1889  165.0084 C.3     1  UNL1        0.0722
     33 N         139.8377  141.1402  165.5373 N.3     1  UNL1       -0.2706
     34 C         140.8777  142.0734  164.9917 C.3     1  UNL1        0.0741
     35 C         140.2005  140.1584  166.6117 C.3     1  UNL1        0.1020
     36 C         140.0909  140.5515  168.0550 C.3     1  UNL1        0.1312
     37 C         140.3119  141.9259  168.6138 C.3     1  UNL1        0.0336
     38 C         140.0986  141.8631  170.0972 C.3     1  UNL1        0.0346
     39 C         139.7457  140.4498  170.4553 C.3     1  UNL1        0.1422
     40 O         139.7409  139.6392  169.1932 O.3     1  UNL1       -0.3548
@<TRIPOS>BOND
     1    11    12    1
     2    12    13   ar
     3    13    14   ar
     4    14    15   ar
     5    15    16   ar
     6    16    17   ar
     7    17     1    1
     8     1     2   ar
     9     2     3   ar
    10     3     4   ar
    11     4     5   ar
    12     5    18    1
    13    18    19   ar
    14    19    20   ar
    15    20    21   ar
    16    21    22   ar
    17    22    24    1
    18    24    25    1
    19    25    26    1
    20    25    27    1
    21    22    23   ar
    22     5     6   ar
    23     6     7   ar
    24     7     8   ar
    25     8     9    2
    26     8    10   ar
    27    10    28    1
    28    29    28    1
    29    29    30    1
    30    30    31    1
    31    31    32    1
    32    32    33    1
    33    33    35    1
    34    36    35    1
    35    36    37    1
    36    37    38    1
    37    38    39    1
    38    39    40    1
    39    33    34    1
    40    17    12   ar
    41    10     1   ar
    42    34    29    1
    43     7     3   ar
    44    40    36    1
    45    23    18   ar
@<TRIPOS>MOLECULE
*****
 40 45 0 0 0
SMALL
GASTEIGER

@<TRIPOS>ATOM
      1 C         143.2767  141.0357  162.1403 C.ar    1  UNL1        0.1472
      2 N         143.7568  140.5155  160.8177 N.ar    1  UNL1       -0.2248
      3 C         143.8041  141.4257  159.6264 C.ar    1  UNL1        0.1260
      4 C         144.2274  141.1979  158.2055 C.ar    1  UNL1        0.1212
      5 N         144.0563  142.4874  157.4585 N.ar    1  UNL1       -0.2264
      6 N         143.5272  143.5121  158.4177 N.ar    1  UNL1       -0.1586
      7 C         143.3713  142.8559  159.7575 C.ar    1  UNL1        0.1762
      8 C         142.8913  143.3760  161.0801 C.ar    1  UNL1        0.2829
      9 O         142.4585  144.8062  161.2113 O.2     1  UNL1       -0.2652
     10 N         142.8440  142.4658  162.2714 N.ar    1  UNL1       -0.2792
     11 C         145.5923  140.9365  164.0450 C.3     1  UNL1        0.0522
     12 C         144.3872  140.0758  164.2841 C.ar    1  UNL1        0.0623
     13 N         144.3399  139.1657  165.4754 N.ar    1  UNL1       -0.2480
     14 C         143.1348  138.3051  165.7144 C.ar    1  UNL1        0.0984
     15 C         141.9770  138.3547  164.7620 C.ar    1  UNL1        0.0208
     16 C         142.0243  139.2648  163.5706 C.ar    1  UNL1        0.0058
     17 C         143.2294  140.1254  163.3317 C.ar    1  UNL1        0.0478
     18 C         144.3607  142.7127  156.0071 C.ar    1  UNL1        0.0859
     19 C         143.3955  143.4740  155.1476 C.ar    1  UNL1        0.0194
     20 C         143.7000  143.6992  153.6962 C.ar    1  UNL1        0.0047
     21 C         144.9698  143.1632  153.1043 C.ar    1  UNL1        0.0370
     22 C         145.9350  142.4019  153.9637 C.ar    1  UNL1        0.1399
     23 C         145.6305  142.1767  155.4152 C.ar    1  UNL1        0.0560
     24 O         147.2048  141.8659  153.3719 O.3     1  UNL1       -0.4791
     25 C         148.5270  142.4371  153.7907 C.3     1  UNL1        0.1661
     26 C         149.2871  141.8158  154.9248 C.3     1  UNL1        0.0472
     27 C         149.0892  143.6297  153.0753 C.3     1  UNL1        0.0472
     28 C         142.3639  142.9859  163.5940 C.3     1  UNL1        0.1119
     29 C         140.9027  143.2445  163.8125 C.3     1  UNL1        0.0388
     30 C         140.4582  144.4995  164.5036 C.3     1  UNL1        0.0048
     31 C         138.9970  144.7581  164.7222 C.3     1  UNL1        0.0174
     32 C         137.9801  143.7618  164.2496 C.3     1  UNL1        0.0722
     33 N         138.4244  142.5068  163.5585 N.3     1  UNL1       -0.2706
     34 C         139.8858  142.2482  163.3399 C.3     1  UNL1        0.0741
     35 C         137.4075  141.5106  163.0859 C.3     1  UNL1        0.1020
     36 C         137.8274  140.1085  162.7576 C.3     1  UNL1        0.1312
     37 C         138.3758  139.1027  163.7259 C.3     1  UNL1        0.0336
     38 C         138.6600  137.8386  162.9700 C.3     1  UNL1        0.0346
     39 C         138.2872  138.0632  161.5345 C.3     1  UNL1        0.1422
     40 O         137.7727  139.4660  161.4032 O.3     1  UNL1       -0.3548
@<TRIPOS>BOND
     1    11    12    1
     2    12    13   ar
     3    13    14   ar
     4    14    15   ar
     5    15    16   ar
     6    16    17   ar
     7    17     1    1
     8     1     2   ar
     9     2     3   ar
    10     3     4   ar
    11     4     5   ar
    12     5    18    1
    13    18    19   ar
    14    19    20   ar
    15    20    21   ar
    16    21    22   ar
    17    22    24    1
    18    24    25    1
    19    25    26    1
    20    25    27    1
    21    22    23   ar
    22     5     6   ar
    23     6     7   ar
    24     7     8   ar
    25     8     9    2
    26     8    10   ar
    27    10    28    1
    28    29    28    1
    29    29    30    1
    30    30    31    1
    31    31    32    1
    32    32    33    1
    33    33    35    1
    34    36    35    1
    35    36    37    1
    36    37    38    1
    37    38    39    1
    38    39    40    1
    39    33    34    1
    40    17    12   ar
    41    10     1   ar
    42    34    29    1
    43     7     3   ar
    44    40    36    1
    45    23    18   ar
@<TRIPOS>MOLECULE
*****
 40 45 0 0 0
SMALL
GASTEIGER

@<TRIPOS>ATOM
      1 C         140.5191  140.4424  161.5039 C.ar    1  UNL1        0.1472
      2 N         139.9833  139.6930  160.3201 N.ar    1  UNL1       -0.2248
      3 C         140.9142  138.9037  159.4481 C.ar    1  UNL1        0.1260
      4 C         140.6780  138.0711  158.2230 C.ar    1  UNL1        0.1212
      5 N         141.9987  137.5167  157.7776 N.ar    1  UNL1       -0.2264
      6 N         143.0512  138.0067  158.7275 N.ar    1  UNL1       -0.1586
      7 C         142.3809  138.8639  159.7599 C.ar    1  UNL1        0.1762
      8 C         142.9167  139.6133  160.9437 C.ar    1  UNL1        0.2829
      9 O         144.3834  139.5735  161.2555 O.2     1  UNL1       -0.2652
     10 N         141.9857  140.4026  161.8157 N.ar    1  UNL1       -0.2792
     11 C         139.1594  139.1209  163.8287 C.3     1  UNL1        0.0522
     12 C         138.9083  140.5710  163.5384 C.ar    1  UNL1        0.0623
     13 N         137.9773  141.3603  164.4103 N.ar    1  UNL1       -0.2480
     14 C         137.7262  142.8103  164.1199 C.ar    1  UNL1        0.0984
     15 C         138.4061  143.4711  162.9575 C.ar    1  UNL1        0.0208
     16 C         139.3370  142.6818  162.0855 C.ar    1  UNL1        0.0058
     17 C         139.5881  141.2317  162.3760 C.ar    1  UNL1        0.0478
     18 C         142.2269  136.6284  156.5907 C.ar    1  UNL1        0.0859
     19 C         141.5715  136.9457  155.2793 C.ar    1  UNL1        0.0194
     20 C         141.7998  136.0573  154.0925 C.ar    1  UNL1        0.0047
     21 C         142.6833  134.8515  154.2170 C.ar    1  UNL1        0.0370
     22 C         143.3386  134.5341  155.5284 C.ar    1  UNL1        0.1399
     23 C         143.1104  135.4226  156.7152 C.ar    1  UNL1        0.0560
     24 O         144.2222  133.3284  155.6529 O.3     1  UNL1       -0.4791
     25 C         144.0757  132.4098  156.8296 C.3     1  UNL1        0.1661
     26 C         145.0773  132.4545  157.9453 C.3     1  UNL1        0.0472
     27 C         142.9277  131.4463  156.8906 C.3     1  UNL1        0.0472
     28 C         142.5216  141.1520  162.9995 C.3     1  UNL1        0.1119
     29 C         142.6618  140.4614  164.3236 C.3     1  UNL1        0.0388
     30 C         142.8189  138.9706  164.3791 C.3     1  UNL1        0.0048
     31 C         142.9591  138.2801  165.7031 C.3     1  UNL1        0.0174
     32 C         142.9423  139.0802  166.9719 C.3     1  UNL1        0.0722
     33 N         142.7853  140.5709  166.9165 N.3     1  UNL1       -0.2706
     34 C         142.6450  141.2615  165.5922 C.3     1  UNL1        0.0741
     35 C         142.7685  141.3710  168.1851 C.3     1  UNL1        0.1020
     36 C         141.4971  141.5072  168.9692 C.3     1  UNL1        0.1312
     37 C         140.3773  140.5101  169.0134 C.3     1  UNL1        0.0336
     38 C         139.3103  141.0511  169.9182 C.3     1  UNL1        0.0346
     39 C         139.7706  142.3825  170.4333 C.3     1  UNL1        0.1422
     40 O         141.1221  142.6645  169.8468 O.3     1  UNL1       -0.3548
@<TRIPOS>BOND
     1    11    12    1
     2    12    13   ar
     3    13    14   ar
     4    14    15   ar
     5    15    16   ar
     6    16    17   ar
     7    17     1    1
     8     1     2   ar
     9     2     3   ar
    10     3     4   ar
    11     4     5   ar
    12     5    18    1
    13    18    19   ar
    14    19    20   ar
    15    20    21   ar
    16    21    22   ar
    17    22    24    1
    18    24    25    1
    19    25    26    1
    20    25    27    1
    21    22    23   ar
    22     5     6   ar
    23     6     7   ar
    24     7     8   ar
    25     8     9    2
    26     8    10   ar
    27    10    28    1
    28    29    28    1
    29    29    30    1
    30    30    31    1
    31    31    32    1
    32    32    33    1
    33    33    35    1
    34    36    35    1
    35    36    37    1
    36    37    38    1
    37    38    39    1
    38    39    40    1
    39    33    34    1
    40    17    12   ar
    41    10     1   ar
    42    34    29    1
    43     7     3   ar
    44    40    36    1
    45    23    18   ar
@<TRIPOS>MOLECULE
*****
 40 45 0 0 0
SMALL
GASTEIGER

@<TRIPOS>ATOM
      1 C         142.0735  141.4773  161.8025 C.ar    1  UNL1        0.1472
      2 N         142.8755  140.8345  160.7098 N.ar    1  UNL1       -0.2248
      3 C         142.2417  139.8073  159.8193 C.ar    1  UNL1        0.1260
      4 C         142.7778  139.0091  158.6680 C.ar    1  UNL1        0.1212
      5 N         141.6733  138.1313  158.1585 N.ar    1  UNL1       -0.2264
      6 N         140.4547  138.3870  158.9949 N.ar    1  UNL1       -0.1586
      7 C         140.8060  139.4228  160.0214 C.ar    1  UNL1        0.1762
      8 C         140.0041  140.0655  161.1140 C.ar    1  UNL1        0.2829
      9 O         138.5683  139.6811  161.3161 O.2     1  UNL1       -0.2652
     10 N         140.6379  141.0928  162.0045 N.ar    1  UNL1       -0.2792
     11 C         141.7849  144.3953  161.1684 C.3     1  UNL1        0.0522
     12 C         142.5631  143.9636  162.3760 C.ar    1  UNL1        0.0623
     13 N         143.1969  144.9908  163.2666 N.ar    1  UNL1       -0.2480
     14 C         143.9750  144.5590  164.4741 C.ar    1  UNL1        0.0984
     15 C         144.1193  143.1001  164.7911 C.ar    1  UNL1        0.0208
     16 C         143.4855  142.0728  163.9006 C.ar    1  UNL1        0.0058
     17 C         142.7074  142.5046  162.6930 C.ar    1  UNL1        0.0478
     18 C         141.7703  137.1672  157.0135 C.ar    1  UNL1        0.0859
     19 C         140.8082  137.2651  155.8669 C.ar    1  UNL1        0.0194
     20 C         140.9054  136.3009  154.7219 C.ar    1  UNL1        0.0047
     21 C         141.9645  135.2387  154.7236 C.ar    1  UNL1        0.0370
     22 C         142.9266  135.1407  155.8702 C.ar    1  UNL1        0.1399
     23 C         142.8295  136.1050  157.0152 C.ar    1  UNL1        0.0560
     24 O         143.9858  134.0786  155.8720 O.3     1  UNL1       -0.4791
     25 C         143.8859  132.9216  156.8214 C.3     1  UNL1        0.1661
     26 C         144.8566  132.7984  157.9583 C.3     1  UNL1        0.0472
     27 C         142.8155  131.8877  156.6338 C.3     1  UNL1        0.0472
     28 C         139.8359  141.7355  163.0971 C.3     1  UNL1        0.1119
     29 C         139.5955  141.0009  164.3825 C.3     1  UNL1        0.0388
     30 C         138.3167  140.2436  164.5859 C.3     1  UNL1        0.0048
     31 C         138.0764  139.5090  165.8713 C.3     1  UNL1        0.0174
     32 C         139.1149  139.5316  166.9536 C.3     1  UNL1        0.0722
     33 N         140.3936  140.2888  166.7503 N.3     1  UNL1       -0.2706
     34 C         140.6339  141.0235  165.4648 C.3     1  UNL1        0.0741
     35 C         141.4320  140.3114  167.8326 C.3     1  UNL1        0.1020
     36 C         141.5555  141.5079  168.7286 C.3     1  UNL1        0.1312
     37 C         140.5270  142.5850  168.9080 C.3     1  UNL1        0.0336
     38 C         141.0650  143.5803  169.8930 C.3     1  UNL1        0.0346
     39 C         142.4259  143.1182  170.3223 C.3     1  UNL1        0.1422
     40 O         142.7291  141.8375  169.6028 O.3     1  UNL1       -0.3548
@<TRIPOS>BOND
     1    11    12    1
     2    12    13   ar
     3    13    14   ar
     4    14    15   ar
     5    15    16   ar
     6    16    17   ar
     7    17     1    1
     8     1     2   ar
     9     2     3   ar
    10     3     4   ar
    11     4     5   ar
    12     5    18    1
    13    18    19   ar
    14    19    20   ar
    15    20    21   ar
    16    21    22   ar
    17    22    24    1
    18    24    25    1
    19    25    26    1
    20    25    27    1
    21    22    23   ar
    22     5     6   ar
    23     6     7   ar
    24     7     8   ar
    25     8     9    2
    26     8    10   ar
    27    10    28    1
    28    29    28    1
    29    29    30    1
    30    30    31    1
    31    31    32    1
    32    32    33    1
    33    33    35    1
    34    36    35    1
    35    36    37    1
    36    37    38    1
    37    38    39    1
    38    39    40    1
    39    33    34    1
    40    17    12   ar
    41    10     1   ar
    42    34    29    1
    43     7     3   ar
    44    40    36    1
    45    23    18   ar
