@<TRIPOS>MOLECULE
*****
 32 36 0 0 0
SMALL
GASTEIGER

@<TRIPOS>ATOM
      1 C         137.8488  138.6313  161.6163 C.3     1  UNL1        0.0759
      2 N         138.2642  138.9361  163.0250 N.3     1  UNL1       -0.2725
      3 C         138.0388  140.3057  163.5938 C.3     1  UNL1        0.0725
      4 C         138.4542  140.6105  165.0025 C.3     1  UNL1        0.0234
      5 C         139.0950  139.5457  165.8425 C.3     1  UNL1        0.0464
      6 C         139.3204  138.1762  165.2738 C.3     1  UNL1        0.0234
      7 C         138.9050  137.8713  163.8650 C.3     1  UNL1        0.0725
      8 C         139.5104  139.8505  167.2512 C.ar    1  UNL1        0.1003
      9 N         138.7617  139.4683  168.4935 N.ar    1  UNL1       -0.0814
     10 O         139.5360  139.9726  169.6751 O.2     1  UNL1       -0.3536
     11 C         140.7634  140.6666  169.1630 C.ar    1  UNL1        0.1787
     12 C         141.8933  141.3574  169.8672 C.ar    1  UNL1        0.0698
     13 C         143.0074  141.9728  169.0735 C.ar    1  UNL1        0.1433
     14 F         144.1373  142.6636  169.7777 F       1  UNL1       -0.2041
     15 C         142.9916  141.8973  167.5754 C.ar    1  UNL1        0.0299
     16 C         141.8616  141.2065  166.8712 C.ar    1  UNL1        0.0067
     17 C         140.7475  140.5911  167.6650 C.ar    1  UNL1        0.0540
     18 C         138.5958  139.2387  160.4661 C.3     1  UNL1        0.0646
     19 C         139.9563  138.7241  160.0998 C.3     1  UNL1        0.2068
     20 O         140.8105  138.0577  161.1372 O.3     1  UNL1       -0.4754
     21 C         143.2549  144.9030  163.9511 C.3     1  UNL1        0.1152
     22 N         143.4433  143.4238  163.7872 N.am    1  UNL1       -0.2740
     23 C         144.6350  142.7475  164.3974 C.3     1  UNL1        0.0984
     24 C         144.8235  141.2684  164.2336 C.3     1  UNL1        0.0480
     25 C         143.8202  140.4657  163.4595 C.ar    1  UNL1       -0.0159
     26 C         144.0086  138.9867  163.2956 C.ar    1  UNL1       -0.0010
     27 C         143.0054  138.1840  162.5215 C.ar    1  UNL1        0.0366
     28 C         141.8137  138.8604  161.9113 C.ar    1  UNL1        0.1387
     29 C         141.6253  140.3394  162.0752 C.ar    1  UNL1        0.0411
     30 C         142.6285  141.1421  162.8492 C.ar    1  UNL1        0.0527
     31 C         142.4401  142.6212  163.0131 C.2     1  UNL1        0.2489
     32 O         141.2484  143.2976  162.4029 O.2     1  UNL1       -0.2699
@<TRIPOS>BOND
     1    21    22    1
     2    22    23    1
     3    23    24    1
     4    24    25    1
     5    25    26   ar
     6    26    27   ar
     7    27    28   ar
     8    28    20    1
     9    20    19    1
    10    19    18    1
    11    18     1    1
    12     1     2    1
    13     2     3    1
    14     3     4    1
    15     4     5    1
    16     5     8    1
    17     8     9   ar
    18     9    10   ar
    19    10    11   ar
    20    11    12   ar
    21    12    13   ar
    22    13    14    1
    23    13    15   ar
    24    15    16   ar
    25    16    17   ar
    26     5     6    1
    27     6     7    1
    28    28    29   ar
    29    29    30   ar
    30    30    31    1
    31    31    32    2
    32    31    22   am
    33    30    25   ar
    34     7     2    1
    35    17     8   ar
    36    17    11   ar
@<TRIPOS>MOLECULE
*****
 32 36 0 0 0
SMALL
GASTEIGER

@<TRIPOS>ATOM
      1 C         139.2302  145.4428  162.0852 C.3     1  UNL1        0.0759
      2 N         139.2917  144.3946  163.1563 N.3     1  UNL1       -0.2725
      3 C         138.6675  143.0500  162.9267 C.3     1  UNL1        0.0725
      4 C         138.7289  142.0018  163.9979 C.3     1  UNL1        0.0234
      5 C         139.4145  142.2981  165.2987 C.3     1  UNL1        0.0464
      6 C         140.0387  143.6425  165.5284 C.3     1  UNL1        0.0234
      7 C         139.9773  144.6908  164.4572 C.3     1  UNL1        0.0725
      8 C         139.4760  141.2499  166.3699 C.ar    1  UNL1        0.1003
      9 N         138.8130  139.9050  166.3265 N.ar    1  UNL1       -0.0814
     10 O         139.1385  139.1864  167.6024 O.2     1  UNL1       -0.3536
     11 C         140.0026  140.0872  168.4343 C.ar    1  UNL1        0.1787
     12 C         140.6265  139.9110  169.7869 C.ar    1  UNL1        0.0698
     13 C         141.4589  141.0099  170.3778 C.ar    1  UNL1        0.1433
     14 F         142.0828  140.8337  171.7305 F       1  UNL1       -0.2041
     15 C         141.6675  142.2852  169.6161 C.ar    1  UNL1        0.0299
     16 C         141.0437  142.4614  168.2635 C.ar    1  UNL1        0.0067
     17 C         140.2112  141.3624  167.6725 C.ar    1  UNL1        0.0540
     18 C         140.4196  145.6852  161.2040 C.3     1  UNL1        0.0646
     19 C         141.3483  144.5555  160.8699 C.3     1  UNL1        0.2068
     20 O         142.6516  144.4154  161.5990 O.3     1  UNL1       -0.4754
     21 C         141.1914  137.3311  164.5026 C.3     1  UNL1        0.1152
     22 N         141.8147  138.6885  164.6407 N.am    1  UNL1       -0.2740
     23 C         142.5746  139.0418  165.8848 C.3     1  UNL1        0.0984
     24 C         143.1979  140.3991  166.0229 C.3     1  UNL1        0.0480
     25 C         143.0613  141.4032  164.9169 C.ar    1  UNL1       -0.0159
     26 C         143.6847  142.7605  165.0550 C.ar    1  UNL1       -0.0010
     27 C         143.5481  143.7646  163.9491 C.ar    1  UNL1        0.0366
     28 C         142.7882  143.4113  162.7050 C.ar    1  UNL1        0.1387
     29 C         142.1649  142.0540  162.5669 C.ar    1  UNL1        0.0411
     30 C         142.3015  141.0499  163.6728 C.ar    1  UNL1        0.0527
     31 C         141.6781  139.6925  163.5347 C.2     1  UNL1        0.2489
     32 O         140.9182  139.3392  162.2906 O.2     1  UNL1       -0.2699
@<TRIPOS>BOND
     1    21    22    1
     2    22    23    1
     3    23    24    1
     4    24    25    1
     5    25    26   ar
     6    26    27   ar
     7    27    28   ar
     8    28    20    1
     9    20    19    1
    10    19    18    1
    11    18     1    1
    12     1     2    1
    13     2     3    1
    14     3     4    1
    15     4     5    1
    16     5     8    1
    17     8     9   ar
    18     9    10   ar
    19    10    11   ar
    20    11    12   ar
    21    12    13   ar
    22    13    14    1
    23    13    15   ar
    24    15    16   ar
    25    16    17   ar
    26     5     6    1
    27     6     7    1
    28    28    29   ar
    29    29    30   ar
    30    30    31    1
    31    31    32    2
    32    31    22   am
    33    30    25   ar
    34     7     2    1
    35    17     8   ar
    36    17    11   ar
@<TRIPOS>MOLECULE
*****
 32 36 0 0 0
SMALL
GASTEIGER

@<TRIPOS>ATOM
      1 C         142.2413  144.4606  161.3867 C.3     1  UNL1        0.0759
      2 N         142.3529  143.5099  162.5416 N.3     1  UNL1       -0.2725
      3 C         142.6083  144.0350  163.9233 C.3     1  UNL1        0.0725
      4 C         142.7199  143.0844  165.0782 C.3     1  UNL1        0.0234
      5 C         142.5760  141.6086  164.8514 C.3     1  UNL1        0.0464
      6 C         142.3206  141.0835  163.4698 C.3     1  UNL1        0.0234
      7 C         142.2090  142.0342  162.3148 C.3     1  UNL1        0.0725
      8 C         142.6876  140.6580  166.0063 C.ar    1  UNL1        0.1003
      9 N         143.4234  139.3508  166.0044 N.ar    1  UNL1       -0.0814
     10 O         143.2734  138.7325  167.3628 O.2     1  UNL1       -0.3536
     11 C         142.4450  139.6576  168.2043 C.ar    1  UNL1        0.1787
     12 C         141.9735  139.5701  169.6256 C.ar    1  UNL1        0.0698
     13 C         141.1401  140.6725  170.2085 C.ar    1  UNL1        0.1433
     14 F         140.6686  140.5850  171.6298 F       1  UNL1       -0.2041
     15 C         140.7779  141.8625  169.3701 C.ar    1  UNL1        0.0299
     16 C         141.2494  141.9500  167.9488 C.ar    1  UNL1        0.0067
     17 C         142.0829  140.8475  167.3659 C.ar    1  UNL1        0.0540
     18 C         140.9015  144.7423  160.7739 C.3     1  UNL1        0.0646
     19 C         140.0446  145.8461  161.3191 C.3     1  UNL1        0.2068
     20 O         138.8547  145.5202  162.1722 O.3     1  UNL1       -0.4754
     21 C         138.3594  137.7604  162.7115 C.3     1  UNL1        0.1152
     22 N         138.5187  139.1006  163.3662 N.am    1  UNL1       -0.2740
     23 C         138.6723  139.1943  164.8553 C.3     1  UNL1        0.0984
     24 C         138.8316  140.5344  165.5101 C.3     1  UNL1        0.0480
     25 C         138.8374  141.7809  164.6756 C.ar    1  UNL1       -0.0159
     26 C         138.9967  143.1210  165.3303 C.ar    1  UNL1       -0.0010
     27 C         139.0025  144.3674  164.4959 C.ar    1  UNL1        0.0366
     28 C         138.8489  144.2737  163.0067 C.ar    1  UNL1        0.1387
     29 C         138.6896  142.9336  162.3520 C.ar    1  UNL1        0.0411
     30 C         138.6838  141.6872  163.1864 C.ar    1  UNL1        0.0527
     31 C         138.5245  140.3470  162.5317 C.2     1  UNL1        0.2489
     32 O         138.3709  140.2533  161.0425 O.2     1  UNL1       -0.2699
@<TRIPOS>BOND
     1    21    22    1
     2    22    23    1
     3    23    24    1
     4    24    25    1
     5    25    26   ar
     6    26    27   ar
     7    27    28   ar
     8    28    20    1
     9    20    19    1
    10    19    18    1
    11    18     1    1
    12     1     2    1
    13     2     3    1
    14     3     4    1
    15     4     5    1
    16     5     8    1
    17     8     9   ar
    18     9    10   ar
    19    10    11   ar
    20    11    12   ar
    21    12    13   ar
    22    13    14    1
    23    13    15   ar
    24    15    16   ar
    25    16    17   ar
    26     5     6    1
    27     6     7    1
    28    28    29   ar
    29    29    30   ar
    30    30    31    1
    31    31    32    2
    32    31    22   am
    33    30    25   ar
    34     7     2    1
    35    17     8   ar
    36    17    11   ar
@<TRIPOS>MOLECULE
*****
 32 36 0 0 0
SMALL
GASTEIGER

@<TRIPOS>ATOM
      1 C         137.9482  138.5152  161.4487 C.3     1  UNL1        0.0759
      2 N         138.8843  138.6179  162.6163 N.3     1  UNL1       -0.2725
      3 C         138.3647  139.0373  163.9595 C.3     1  UNL1        0.0725
      4 C         139.3007  139.1401  165.1271 C.3     1  UNL1        0.0234
      5 C         140.7564  138.8234  164.9515 C.3     1  UNL1        0.0464
      6 C         141.2760  138.4041  163.6083 C.3     1  UNL1        0.0234
      7 C         140.3399  138.3013  162.4407 C.3     1  UNL1        0.0725
      8 C         141.6924  138.9262  166.1190 C.ar    1  UNL1        0.1003
      9 N         143.0694  138.3367  166.1997 N.ar    1  UNL1       -0.0814
     10 O         143.6438  138.6826  167.5416 O.2     1  UNL1       -0.3536
     11 C         142.6219  139.4860  168.2901 C.ar    1  UNL1        0.1787
     12 C         142.6337  140.0999  169.6587 C.ar    1  UNL1        0.0698
     13 C         141.4395  140.8642  170.1481 C.ar    1  UNL1        0.1433
     14 F         141.4513  141.4781  171.5167 F       1  UNL1       -0.2041
     15 C         140.2334  141.0148  169.2690 C.ar    1  UNL1        0.0299
     16 C         140.2216  140.4009  167.9004 C.ar    1  UNL1        0.0067
     17 C         141.4159  139.6365  167.4110 C.ar    1  UNL1        0.0540
     18 C         137.3659  139.7576  160.8428 C.3     1  UNL1        0.0646
     19 C         138.2130  140.9863  160.6914 C.3     1  UNL1        0.2068
     20 O         138.1249  142.0877  161.7058 O.3     1  UNL1       -0.4754
     21 C         145.6097  141.5466  163.8118 C.3     1  UNL1        0.1152
     22 N         144.1859  141.8769  164.1491 N.am    1  UNL1       -0.2740
     23 C         143.8333  142.3571  165.5257 C.3     1  UNL1        0.0984
     24 C         142.4095  142.6873  165.8630 C.3     1  UNL1        0.0480
     25 C         141.3383  142.5374  164.8237 C.ar    1  UNL1       -0.0159
     26 C         139.9146  142.8677  165.1610 C.ar    1  UNL1       -0.0010
     27 C         138.8435  142.7178  164.1217 C.ar    1  UNL1        0.0366
     28 C         139.1961  142.2376  162.7451 C.ar    1  UNL1        0.1387
     29 C         140.6198  141.9074  162.4078 C.ar    1  UNL1        0.0411
     30 C         141.6909  142.0573  163.4471 C.ar    1  UNL1        0.0527
     31 C         143.1148  141.7270  163.1098 C.2     1  UNL1        0.2489
     32 O         143.4674  141.2468  161.7331 O.2     1  UNL1       -0.2699
@<TRIPOS>BOND
     1    21    22    1
     2    22    23    1
     3    23    24    1
     4    24    25    1
     5    25    26   ar
     6    26    27   ar
     7    27    28   ar
     8    28    20    1
     9    20    19    1
    10    19    18    1
    11    18     1    1
    12     1     2    1
    13     2     3    1
    14     3     4    1
    15     4     5    1
    16     5     8    1
    17     8     9   ar
    18     9    10   ar
    19    10    11   ar
    20    11    12   ar
    21    12    13   ar
    22    13    14    1
    23    13    15   ar
    24    15    16   ar
    25    16    17   ar
    26     5     6    1
    27     6     7    1
    28    28    29   ar
    29    29    30   ar
    30    30    31    1
    31    31    32    2
    32    31    22   am
    33    30    25   ar
    34     7     2    1
    35    17     8   ar
    36    17    11   ar
@<TRIPOS>MOLECULE
*****
 32 36 0 0 0
SMALL
GASTEIGER

@<TRIPOS>ATOM
      1 C         142.2203  137.9027  161.5150 C.3     1  UNL1        0.0759
      2 N         141.6764  138.2764  162.8620 N.3     1  UNL1       -0.2725
      3 C         140.2994  138.8597  162.9794 C.3     1  UNL1        0.0725
      4 C         139.7555  139.2335  164.3264 C.3     1  UNL1        0.0234
      5 C         140.5885  139.0239  165.5561 C.3     1  UNL1        0.0464
      6 C         141.9654  138.4406  165.4388 C.3     1  UNL1        0.0234
      7 C         142.5094  138.0668  164.0917 C.3     1  UNL1        0.0725
      8 C         140.0446  139.3976  166.9030 C.ar    1  UNL1        0.1003
      9 N         138.6579  139.1187  167.4023 N.ar    1  UNL1       -0.0814
     10 O         138.5482  139.6647  168.7952 O.2     1  UNL1       -0.3536
     11 C         139.8671  140.2810  169.1567 C.ar    1  UNL1        0.1787
     12 C         140.3454  140.9711  170.3997 C.ar    1  UNL1        0.0698
     13 C         141.7485  141.4963  170.4732 C.ar    1  UNL1        0.1433
     14 F         142.2268  142.1864  171.7161 F       1  UNL1       -0.2041
     15 C         142.6734  141.3313  169.3038 C.ar    1  UNL1        0.0299
     16 C         142.1951  140.6411  168.0609 C.ar    1  UNL1        0.0067
     17 C         140.7919  140.1160  167.9874 C.ar    1  UNL1        0.0540
     18 C         143.6376  138.2404  161.1585 C.3     1  UNL1        0.0646
     19 C         143.9805  139.6166  160.6699 C.3     1  UNL1        0.2068
     20 O         144.4990  140.6457  161.6301 O.3     1  UNL1       -0.4754
     21 C         137.7123  144.0788  163.3348 C.3     1  UNL1        0.1152
     22 N         139.0499  143.5574  163.7699 N.am    1  UNL1       -0.2740
     23 C         139.4627  143.6591  165.2084 C.3     1  UNL1        0.0984
     24 C         140.8001  143.1378  165.6436 C.3     1  UNL1        0.0480
     25 C         141.7249  142.5148  164.6402 C.ar    1  UNL1       -0.0159
     26 C         143.0624  141.9935  165.0753 C.ar    1  UNL1       -0.0010
     27 C         143.9870  141.3705  164.0720 C.ar    1  UNL1        0.0366
     28 C         143.5743  141.2688  162.6335 C.ar    1  UNL1        0.1387
     29 C         142.2368  141.7901  162.1983 C.ar    1  UNL1        0.0411
     30 C         141.3121  142.4131  163.2017 C.ar    1  UNL1        0.0527
     31 C         139.9746  142.9344  162.7666 C.2     1  UNL1        0.2489
     32 O         139.5618  142.8327  161.3281 O.2     1  UNL1       -0.2699
@<TRIPOS>BOND
     1    21    22    1
     2    22    23    1
     3    23    24    1
     4    24    25    1
     5    25    26   ar
     6    26    27   ar
     7    27    28   ar
     8    28    20    1
     9    20    19    1
    10    19    18    1
    11    18     1    1
    12     1     2    1
    13     2     3    1
    14     3     4    1
    15     4     5    1
    16     5     8    1
    17     8     9   ar
    18     9    10   ar
    19    10    11   ar
    20    11    12   ar
    21    12    13   ar
    22    13    14    1
    23    13    15   ar
    24    15    16   ar
    25    16    17   ar
    26     5     6    1
    27     6     7    1
    28    28    29   ar
    29    29    30   ar
    30    30    31    1
    31    31    32    2
    32    31    22   am
    33    30    25   ar
    34     7     2    1
    35    17     8   ar
    36    17    11   ar
@<TRIPOS>MOLECULE
*****
 32 36 0 0 0
SMALL
GASTEIGER

@<TRIPOS>ATOM
      1 C         137.4918  140.6170  161.4067 C.3     1  UNL1        0.0759
      2 N         138.0368  140.5385  162.8019 N.3     1  UNL1       -0.2725
      3 C         138.5447  139.2322  163.3364 C.3     1  UNL1        0.0725
      4 C         139.0897  139.1537  164.7317 C.3     1  UNL1        0.0234
      5 C         139.1269  140.3816  165.5925 C.3     1  UNL1        0.0464
      6 C         138.6191  141.6879  165.0581 C.3     1  UNL1        0.0234
      7 C         138.0740  141.7664  163.6627 C.3     1  UNL1        0.0725
      8 C         139.6719  140.3031  166.9877 C.ar    1  UNL1        0.1003
      9 N         139.0564  139.5568  168.1341 N.ar    1  UNL1       -0.0814
     10 O         139.9322  139.7497  169.3365 O.2     1  UNL1       -0.3536
     11 C         141.0891  140.6152  168.9333 C.ar    1  UNL1        0.1787
     12 C         142.2682  141.1361  169.7003 C.ar    1  UNL1        0.0698
     13 C         143.2864  141.9990  169.0158 C.ar    1  UNL1        0.1433
     14 F         144.4655  142.5199  169.7829 F       1  UNL1       -0.2041
     15 C         143.1255  142.3411  167.5642 C.ar    1  UNL1        0.0299
     16 C         141.9464  141.8202  166.7972 C.ar    1  UNL1        0.0067
     17 C         140.9282  140.9573  167.4817 C.ar    1  UNL1        0.0540
     18 C         138.4251  140.5706  160.2333 C.3     1  UNL1        0.0646
     19 C         138.8852  141.8452  159.5900 C.3     1  UNL1        0.2068
     20 O         138.7278  143.1497  160.3135 O.3     1  UNL1       -0.4754
     21 C         145.4420  141.8987  164.0693 C.3     1  UNL1        0.1152
     22 N         144.2770  142.7890  163.7524 N.am    1  UNL1       -0.2740
     23 C         144.1853  144.1526  164.3707 C.3     1  UNL1        0.0984
     24 C         143.0204  145.0429  164.0539 C.3     1  UNL1        0.0480
     25 C         141.9472  144.5696  163.1187 C.ar    1  UNL1       -0.0159
     26 C         140.7824  145.4599  162.8019 C.ar    1  UNL1       -0.0010
     27 C         139.7093  144.9866  161.8669 C.ar    1  UNL1        0.0366
     28 C         139.8010  143.6230  161.2486 C.ar    1  UNL1        0.1387
     29 C         140.9659  142.7327  161.5654 C.ar    1  UNL1        0.0411
     30 C         142.0390  143.2060  162.5005 C.ar    1  UNL1        0.0527
     31 C         143.2039  142.3157  162.8174 C.2     1  UNL1        0.2489
     32 O         143.2957  140.9521  162.1991 O.2     1  UNL1       -0.2699
@<TRIPOS>BOND
     1    21    22    1
     2    22    23    1
     3    23    24    1
     4    24    25    1
     5    25    26   ar
     6    26    27   ar
     7    27    28   ar
     8    28    20    1
     9    20    19    1
    10    19    18    1
    11    18     1    1
    12     1     2    1
    13     2     3    1
    14     3     4    1
    15     4     5    1
    16     5     8    1
    17     8     9   ar
    18     9    10   ar
    19    10    11   ar
    20    11    12   ar
    21    12    13   ar
    22    13    14    1
    23    13    15   ar
    24    15    16   ar
    25    16    17   ar
    26     5     6    1
    27     6     7    1
    28    28    29   ar
    29    29    30   ar
    30    30    31    1
    31    31    32    2
    32    31    22   am
    33    30    25   ar
    34     7     2    1
    35    17     8   ar
    36    17    11   ar
@<TRIPOS>MOLECULE
*****
 32 36 0 0 0
SMALL
GASTEIGER

@<TRIPOS>ATOM
      1 C         144.5050  140.4539  161.6891 C.3     1  UNL1        0.0759
      2 N         144.0430  140.3428  163.1118 N.3     1  UNL1       -0.2725
      3 C         144.4335  139.1520  163.9364 C.3     1  UNL1        0.0725
      4 C         143.9715  139.0410  165.3591 C.3     1  UNL1        0.0234
      5 C         143.1191  140.1205  165.9573 C.3     1  UNL1        0.0464
      6 C         142.7286  141.3112  165.1329 C.3     1  UNL1        0.0234
      7 C         143.1906  141.4223  163.7101 C.3     1  UNL1        0.0725
      8 C         142.6571  140.0094  167.3801 C.ar    1  UNL1        0.1003
      9 N         142.9815  138.8929  168.3278 N.ar    1  UNL1       -0.0814
     10 O         142.3145  139.1888  169.6384 O.2     1  UNL1       -0.3536
     11 C         141.5778  140.4882  169.5006 C.ar    1  UNL1        0.1787
     12 C         140.7416  141.2752  170.4658 C.ar    1  UNL1        0.0698
     13 C         140.1172  142.5692  170.0353 C.ar    1  UNL1        0.1433
     14 F         139.2810  143.3561  171.0004 F       1  UNL1       -0.2041
     15 C         140.3290  143.0765  168.6395 C.ar    1  UNL1        0.0299
     16 C         141.1652  142.2895  167.6744 C.ar    1  UNL1        0.0067
     17 C         141.7896  140.9954  168.1050 C.ar    1  UNL1        0.0540
     18 C         143.7562  139.7447  160.5999 C.3     1  UNL1        0.0646
     19 C         143.6078  138.2525  160.6406 C.3     1  UNL1        0.2068
     20 O         142.2636  137.6393  160.8996 O.3     1  UNL1       -0.4754
     21 C         137.6755  142.7904  164.5281 C.3     1  UNL1        0.1152
     22 N         138.4129  141.4841  164.5244 N.am    1  UNL1       -0.2740
     23 C         138.3582  140.5886  165.7265 C.3     1  UNL1        0.0984
     24 C         139.0956  139.2824  165.7229 C.3     1  UNL1        0.0480
     25 C         139.8876  138.8716  164.5170 C.ar    1  UNL1       -0.0159
     26 C         140.6250  137.5654  164.5133 C.ar    1  UNL1       -0.0010
     27 C         141.4170  137.1546  163.3075 C.ar    1  UNL1        0.0366
     28 C         141.4716  138.0501  162.1054 C.ar    1  UNL1        0.1387
     29 C         140.7343  139.3563  162.1091 C.ar    1  UNL1        0.0411
     30 C         139.9423  139.7671  163.3149 C.ar    1  UNL1        0.0527
     31 C         139.2049  141.0734  163.3186 C.2     1  UNL1        0.2489
     32 O         139.2595  141.9689  162.1165 O.2     1  UNL1       -0.2699
@<TRIPOS>BOND
     1    21    22    1
     2    22    23    1
     3    23    24    1
     4    24    25    1
     5    25    26   ar
     6    26    27   ar
     7    27    28   ar
     8    28    20    1
     9    20    19    1
    10    19    18    1
    11    18     1    1
    12     1     2    1
    13     2     3    1
    14     3     4    1
    15     4     5    1
    16     5     8    1
    17     8     9   ar
    18     9    10   ar
    19    10    11   ar
    20    11    12   ar
    21    12    13   ar
    22    13    14    1
    23    13    15   ar
    24    15    16   ar
    25    16    17   ar
    26     5     6    1
    27     6     7    1
    28    28    29   ar
    29    29    30   ar
    30    30    31    1
    31    31    32    2
    32    31    22   am
    33    30    25   ar
    34     7     2    1
    35    17     8   ar
    36    17    11   ar
@<TRIPOS>MOLECULE
*****
 32 36 0 0 0
SMALL
GASTEIGER

@<TRIPOS>ATOM
      1 C         139.8259  146.1695  161.8386 C.3     1  UNL1        0.0759
      2 N         139.7533  145.0483  162.8324 N.3     1  UNL1       -0.2725
      3 C         140.9949  144.5908  163.5390 C.3     1  UNL1        0.0725
      4 C         140.9222  143.4696  164.5328 C.3     1  UNL1        0.0234
      5 C         139.6080  142.8060  164.8200 C.3     1  UNL1        0.0464
      6 C         138.3665  143.2635  164.1135 C.3     1  UNL1        0.0234
      7 C         138.4391  144.3847  163.1196 C.3     1  UNL1        0.0725
      8 C         139.5354  141.6848  165.8138 C.ar    1  UNL1        0.1003
      9 N         139.0019  140.3075  165.5518 N.ar    1  UNL1       -0.0814
     10 O         139.1203  139.5155  166.8203 O.2     1  UNL1       -0.3536
     11 C         139.7269  140.4034  167.8662 C.ar    1  UNL1        0.1787
     12 C         140.0787  140.1642  169.3046 C.ar    1  UNL1        0.0698
     13 C         140.6871  141.2657  170.1209 C.ar    1  UNL1        0.1433
     14 F         141.0390  141.0266  171.5593 F       1  UNL1       -0.2041
     15 C         140.9437  142.6064  169.4990 C.ar    1  UNL1        0.0299
     16 C         140.5918  142.8455  168.0606 C.ar    1  UNL1        0.0067
     17 C         139.9834  141.7440  167.2442 C.ar    1  UNL1        0.0540
     18 C         140.3442  145.9125  160.4547 C.3     1  UNL1        0.0646
     19 C         140.0087  144.6291  159.7544 C.3     1  UNL1        0.2068
     20 O         140.8111  143.3922  160.0304 O.3     1  UNL1       -0.4754
     21 C         141.2037  136.9479  164.3971 C.3     1  UNL1        0.1152
     22 N         140.4110  137.8909  163.5413 N.am    1  UNL1       -0.2740
     23 C         138.9564  137.6288  163.2852 C.3     1  UNL1        0.0984
     24 C         138.1637  138.5718  162.4294 C.3     1  UNL1        0.0480
     25 C         138.8256  139.7769  161.8296 C.ar    1  UNL1       -0.0159
     26 C         138.0329  140.7199  160.9738 C.ar    1  UNL1       -0.0010
     27 C         138.6947  141.9249  160.3741 C.ar    1  UNL1        0.0366
     28 C         140.1493  142.1871  160.6302 C.ar    1  UNL1        0.1387
     29 C         140.9420  141.2441  161.4860 C.ar    1  UNL1        0.0411
     30 C         140.2801  140.0390  162.0857 C.ar    1  UNL1        0.0527
     31 C         141.0728  139.0960  162.9415 C.2     1  UNL1        0.2489
     32 O         142.5274  139.3581  163.1976 O.2     1  UNL1       -0.2699
@<TRIPOS>BOND
     1    21    22    1
     2    22    23    1
     3    23    24    1
     4    24    25    1
     5    25    26   ar
     6    26    27   ar
     7    27    28   ar
     8    28    20    1
     9    20    19    1
    10    19    18    1
    11    18     1    1
    12     1     2    1
    13     2     3    1
    14     3     4    1
    15     4     5    1
    16     5     8    1
    17     8     9   ar
    18     9    10   ar
    19    10    11   ar
    20    11    12   ar
    21    12    13   ar
    22    13    14    1
    23    13    15   ar
    24    15    16   ar
    25    16    17   ar
    26     5     6    1
    27     6     7    1
    28    28    29   ar
    29    29    30   ar
    30    30    31    1
    31    31    32    2
    32    31    22   am
    33    30    25   ar
    34     7     2    1
    35    17     8   ar
    36    17    11   ar
@<TRIPOS>MOLECULE
*****
 32 36 0 0 0
SMALL
GASTEIGER

@<TRIPOS>ATOM
      1 C         141.2511  145.5233  161.0509 C.3     1  UNL1        0.0759
      2 N         141.3411  144.6356  162.2565 N.3     1  UNL1       -0.2725
      3 C         142.3282  143.5064  162.2846 C.3     1  UNL1        0.0725
      4 C         142.4182  142.6187  163.4903 C.3     1  UNL1        0.0234
      5 C         141.5211  142.8600  164.6680 C.3     1  UNL1        0.0464
      6 C         140.5340  143.9890  164.6400 C.3     1  UNL1        0.0234
      7 C         140.4440  144.8769  163.4343 C.3     1  UNL1        0.0725
      8 C         141.6111  141.9722  165.8736 C.ar    1  UNL1        0.1003
      9 N         140.9065  142.1859  167.1805 N.ar    1  UNL1       -0.0814
     10 O         141.2815  141.0605  168.0988 O.2     1  UNL1       -0.3536
     11 C         142.2179  140.1513  167.3594 C.ar    1  UNL1        0.1787
     12 C         142.9113  138.8832  167.7606 C.ar    1  UNL1        0.0698
     13 C         143.8084  138.1785  166.7868 C.ar    1  UNL1        0.1433
     14 F         144.5018  136.9104  167.1880 F       1  UNL1       -0.2041
     15 C         144.0122  138.7419  165.4116 C.ar    1  UNL1        0.0299
     16 C         143.3188  140.0100  165.0103 C.ar    1  UNL1        0.0067
     17 C         142.4216  140.7147  165.9842 C.ar    1  UNL1        0.0540
     18 C         140.1479  145.3250  160.0542 C.3     1  UNL1        0.0646
     19 C         139.9859  144.0008  159.3681 C.3     1  UNL1        0.2068
     20 O         138.7945  143.1408  159.6694 O.3     1  UNL1       -0.4754
     21 C         140.7180  137.4030  164.5816 C.3     1  UNL1        0.1152
     22 N         139.9480  138.6558  164.2851 N.am    1  UNL1       -0.2740
     23 C         139.0492  139.2486  165.3294 C.3     1  UNL1        0.0984
     24 C         138.2793  140.5012  165.0330 C.3     1  UNL1        0.0480
     25 C         138.4081  141.1612  163.6921 C.ar    1  UNL1       -0.0159
     26 C         137.6381  142.4138  163.3956 C.ar    1  UNL1       -0.0010
     27 C         137.7669  143.0737  162.0547 C.ar    1  UNL1        0.0366
     28 C         138.6657  142.4809  161.0103 C.ar    1  UNL1        0.1387
     29 C         139.4357  141.2282  161.3068 C.ar    1  UNL1        0.0411
     30 C         139.3069  140.5684  162.6477 C.ar    1  UNL1        0.0527
     31 C         140.0769  139.3156  162.9442 C.2     1  UNL1        0.2489
     32 O         140.9757  138.7228  161.8998 O.2     1  UNL1       -0.2699
@<TRIPOS>BOND
     1    21    22    1
     2    22    23    1
     3    23    24    1
     4    24    25    1
     5    25    26   ar
     6    26    27   ar
     7    27    28   ar
     8    28    20    1
     9    20    19    1
    10    19    18    1
    11    18     1    1
    12     1     2    1
    13     2     3    1
    14     3     4    1
    15     4     5    1
    16     5     8    1
    17     8     9   ar
    18     9    10   ar
    19    10    11   ar
    20    11    12   ar
    21    12    13   ar
    22    13    14    1
    23    13    15   ar
    24    15    16   ar
    25    16    17   ar
    26     5     6    1
    27     6     7    1
    28    28    29   ar
    29    29    30   ar
    30    30    31    1
    31    31    32    2
    32    31    22   am
    33    30    25   ar
    34     7     2    1
    35    17     8   ar
    36    17    11   ar
