@<TRIPOS>MOLECULE
*****
 32 35 0 0 0
SMALL
GASTEIGER

@<TRIPOS>ATOM
      1 C         142.2043  140.1778  164.2090 C.2     1  UNL1        0.1397
      2 C         142.6882  140.4843  162.8227 C.2     1  UNL1        0.1355
      3 N         142.2237  141.7277  162.1239 N.pl3   1  UNL1       -0.1998
      4 C         141.2754  142.6646  162.8115 C.2     1  UNL1        0.3442
      5 N         140.7916  142.3582  164.1978 N.2     1  UNL1       -0.0580
      6 C         141.2560  141.1148  164.8966 C.3     1  UNL1        0.2692
      7 H         142.5413  141.9288  161.2140 H       1  UNL1        0.2983
      8 C         140.7721  140.8083  166.2830 C.ar    1  UNL1        0.0371
      9 C         139.5144  140.0151  166.4801 C.ar    1  UNL1        0.0030
     10 C         139.0305  139.7087  167.8664 C.ar    1  UNL1        0.0295
     11 C         139.8043  140.1954  169.0557 C.ar    1  UNL1        0.1406
     12 F         139.3204  139.8890  170.4420 F       1  UNL1       -0.2042
     13 C         141.0621  140.9886  168.8585 C.ar    1  UNL1        0.0362
     14 C         141.5460  141.2951  167.4721 C.ar    1  UNL1        0.0372
     15 BR        142.8038  142.0883  167.2750 Br      1  UNL1       -0.0491
     16 C         140.8109  143.9080  162.1128 C.ar    1  UNL1        0.1931
     17 N         140.9485  144.1999  160.6479 N.ar    1  UNL1       -0.2297
     18 C         140.3499  145.5501  160.3860 C.ar    1  UNL1        0.1067
     19 C         139.8424  146.0928  161.6890 C.ar    1  UNL1        0.0577
     20 S         140.1273  145.0779  162.7562 S.2     1  UNL1       -0.0586
     21 C         142.6688  138.9344  164.9077 C.2     1  UNL1        0.3447
     22 O         144.0033  138.9128  165.5921 O.2     1  UNL1       -0.2450
     23 O         141.7987  137.7127  164.9220 O.3     1  UNL1       -0.4455
     24 C         139.5782  137.6323  163.5756 C.3     1  UNL1        0.0513
     25 C         141.0404  137.3175  163.6896 C.3     1  UNL1        0.2089
     26 C         143.6365  139.5473  162.1350 C.3     1  UNL1        0.1405
     27 N         143.4760  139.2579  160.6720 N.3     1  UNL1       -0.2617
     28 C         143.9026  140.2747  159.6551 C.3     1  UNL1        0.1050
     29 C         143.7421  139.9852  158.1920 C.3     1  UNL1        0.1595
     30 O         143.1550  138.6790  157.7459 O.3     1  UNL1       -0.3508
     31 C         142.7284  137.6622  158.7628 C.3     1  UNL1        0.1595
     32 C         142.8889  137.9516  160.2258 C.3     1  UNL1        0.1050
@<TRIPOS>BOND
     1    24    25    1
     2    25    23    1
     3    23    21    1
     4    21    22    2
     5    21     1    1
     6     1     2    2
     7     2    26    1
     8    26    27    1
     9    27    28    1
    10    28    29    1
    11    29    30    1
    12    30    31    1
    13    31    32    1
    14     2     3    1
    15     3     4    1
    16     4    16    1
    17    16    17   ar
    18    17    18   ar
    19    18    19   ar
    20    19    20   ar
    21     4     5    2
    22     5     6    1
    23     6     8    1
    24     8     9   ar
    25     9    10   ar
    26    10    11   ar
    27    11    12    1
    28    11    13   ar
    29    13    14   ar
    30    14    15    1
    31     6     1    1
    32    14     8   ar
    33    32    27    1
    34    20    16   ar
    35     3     7    1
@<TRIPOS>MOLECULE
*****
 32 35 0 0 0
SMALL
GASTEIGER

@<TRIPOS>ATOM
      1 C         141.4657  139.7400  164.0350 C.2     1  UNL1        0.1397
      2 C         141.7452  139.9786  162.5808 C.2     1  UNL1        0.1355
      3 N         141.4355  141.3115  161.9664 N.pl3   1  UNL1       -0.1998
      4 C         140.8462  142.4057  162.8062 C.2     1  UNL1        0.3442
      5 N         140.5666  142.1671  164.2605 N.2     1  UNL1       -0.0580
      6 C         140.8764  140.8342  164.8748 C.3     1  UNL1        0.2692
      7 H         141.6190  141.4682  161.0119 H       1  UNL1        0.2983
      8 C         140.5968  140.5955  166.3292 C.ar    1  UNL1        0.0371
      9 C         141.6261  140.9547  167.3595 C.ar    1  UNL1        0.0030
     10 C         141.3465  140.7160  168.8138 C.ar    1  UNL1        0.0295
     11 C         140.0377  140.1183  169.2377 C.ar    1  UNL1        0.1406
     12 F         139.7582  139.8796  170.6920 F       1  UNL1       -0.2042
     13 C         139.0084  139.7591  168.2074 C.ar    1  UNL1        0.0362
     14 C         139.2880  139.9978  166.7531 C.ar    1  UNL1        0.0372
     15 BR        138.2588  139.6386  165.7227 Br      1  UNL1       -0.0491
     16 C         140.5364  143.7386  162.1919 C.ar    1  UNL1        0.1931
     17 N         140.7285  144.1117  160.7517 N.ar    1  UNL1       -0.2297
     18 C         140.2910  145.5361  160.5795 C.ar    1  UNL1        0.1067
     19 C         139.8286  146.0434  161.9133 C.ar    1  UNL1        0.0577
     20 S         139.9803  144.9325  162.9097 S.2     1  UNL1       -0.0586
     21 C         141.7754  138.4071  164.6494 C.2     1  UNL1        0.3447
     22 O         140.7577  137.3061  164.6049 O.2     1  UNL1       -0.2450
     23 O         143.1028  138.1752  165.3082 O.3     1  UNL1       -0.4455
     24 C         145.0849  139.4728  164.2415 C.3     1  UNL1        0.0513
     25 C         144.1137  139.2818  165.3686 C.3     1  UNL1        0.2089
     26 C         142.3345  138.8844  161.7408 C.3     1  UNL1        0.1405
     27 N         141.7924  138.6182  160.3678 N.3     1  UNL1       -0.2617
     28 C         142.7294  138.3041  159.2394 C.3     1  UNL1        0.1050
     29 C         142.1872  138.0379  157.8663 C.3     1  UNL1        0.1595
     30 O         140.7081  138.0858  157.6217 O.3     1  UNL1       -0.3508
     31 C         139.7711  138.4000  158.7502 C.3     1  UNL1        0.1595
     32 C         140.3132  138.6662  160.1232 C.3     1  UNL1        0.1050
@<TRIPOS>BOND
     1    24    25    1
     2    25    23    1
     3    23    21    1
     4    21    22    2
     5    21     1    1
     6     1     2    2
     7     2    26    1
     8    26    27    1
     9    27    28    1
    10    28    29    1
    11    29    30    1
    12    30    31    1
    13    31    32    1
    14     2     3    1
    15     3     4    1
    16     4    16    1
    17    16    17   ar
    18    17    18   ar
    19    18    19   ar
    20    19    20   ar
    21     4     5    2
    22     5     6    1
    23     6     8    1
    24     8     9   ar
    25     9    10   ar
    26    10    11   ar
    27    11    12    1
    28    11    13   ar
    29    13    14   ar
    30    14    15    1
    31     6     1    1
    32    14     8   ar
    33    32    27    1
    34    20    16   ar
    35     3     7    1
@<TRIPOS>MOLECULE
*****
 32 35 0 0 0
SMALL
GASTEIGER

@<TRIPOS>ATOM
      1 C         140.2156  139.6142  163.9387 C.2     1  UNL1        0.1397
      2 C         139.8792  139.8152  162.4909 C.2     1  UNL1        0.1355
      3 N         139.8398  141.1997  161.9152 N.pl3   1  UNL1       -0.1998
      4 C         140.1367  142.3834  162.7873 C.2     1  UNL1        0.3442
      5 N         140.4732  142.1825  164.2352 N.2     1  UNL1       -0.0580
      6 C         140.5126  140.7979  164.8109 C.3     1  UNL1        0.2692
      7 H         139.6189  141.3316  160.9648 H       1  UNL1        0.2983
      8 C         140.8491  140.5970  166.2589 C.ar    1  UNL1        0.0371
      9 C         139.7610  140.6155  167.2912 C.ar    1  UNL1        0.0030
     10 C         140.0974  140.4146  168.7391 C.ar    1  UNL1        0.0295
     11 C         141.5219  140.1953  169.1547 C.ar    1  UNL1        0.1406
     12 F         141.8583  139.9945  170.6026 F       1  UNL1       -0.2042
     13 C         142.6100  140.1769  168.1224 C.ar    1  UNL1        0.0362
     14 C         142.2735  140.3777  166.6744 C.ar    1  UNL1        0.0372
     15 BR        143.3616  140.3593  165.6421 Br      1  UNL1       -0.0491
     16 C         140.0973  143.7679  162.2116 C.ar    1  UNL1        0.1931
     17 N         140.4809  144.1527  160.8135 N.ar    1  UNL1       -0.2297
     18 C         140.2880  145.6334  160.6707 C.ar    1  UNL1        0.1067
     19 C         139.7852  146.1637  161.9806 C.ar    1  UNL1        0.0577
     20 S         139.6673  145.0108  162.9329 S.2     1  UNL1       -0.0586
     21 C         140.2551  138.2297  164.5145 C.2     1  UNL1        0.3447
     22 O         141.5640  137.5090  164.6456 O.2     1  UNL1       -0.2450
     23 O         138.9856  137.5659  164.9591 O.3     1  UNL1       -0.4455
     24 C         137.3825  137.3966  166.9966 C.3     1  UNL1        0.0513
     25 C         138.1119  138.2278  165.9831 C.3     1  UNL1        0.2089
     26 C         139.5822  138.6315  161.6186 C.3     1  UNL1        0.1405
     27 N         140.3709  138.4089  160.3623 N.3     1  UNL1       -0.2617
     28 C         139.6856  138.4537  159.0287 C.3     1  UNL1        0.1050
     29 C         140.4743  138.2311  157.7723 C.3     1  UNL1        0.1595
     30 O         141.9483  137.9638  157.8495 O.3     1  UNL1       -0.3508
     31 C         142.6335  137.9191  159.1831 C.3     1  UNL1        0.1595
     32 C         141.8449  138.1416  160.4395 C.3     1  UNL1        0.1050
@<TRIPOS>BOND
     1    24    25    1
     2    25    23    1
     3    23    21    1
     4    21    22    2
     5    21     1    1
     6     1     2    2
     7     2    26    1
     8    26    27    1
     9    27    28    1
    10    28    29    1
    11    29    30    1
    12    30    31    1
    13    31    32    1
    14     2     3    1
    15     3     4    1
    16     4    16    1
    17    16    17   ar
    18    17    18   ar
    19    18    19   ar
    20    19    20   ar
    21     4     5    2
    22     5     6    1
    23     6     8    1
    24     8     9   ar
    25     9    10   ar
    26    10    11   ar
    27    11    12    1
    28    11    13   ar
    29    13    14   ar
    30    14    15    1
    31     6     1    1
    32    14     8   ar
    33    32    27    1
    34    20    16   ar
    35     3     7    1
@<TRIPOS>MOLECULE
*****
 32 35 0 0 0
SMALL
GASTEIGER

@<TRIPOS>ATOM
      1 C         139.1744  141.5746  160.7821 C.2     1  UNL1        0.1397
      2 C         139.3135  141.0283  159.3921 C.2     1  UNL1        0.1355
      3 N         139.5062  141.9629  158.2348 N.pl3   1  UNL1       -0.1998
      4 C         139.5599  143.4437  158.4674 C.2     1  UNL1        0.3442
      5 N         139.4209  143.9900  159.8574 N.2     1  UNL1       -0.0580
      6 C         139.2281  143.0555  161.0148 C.3     1  UNL1        0.2692
      7 H         139.5975  141.6043  157.3224 H       1  UNL1        0.2983
      8 C         139.0890  143.6018  162.4048 C.ar    1  UNL1        0.0371
      9 C         137.7266  143.7963  163.0014 C.ar    1  UNL1        0.0030
     10 C         137.5874  144.3426  164.3914 C.ar    1  UNL1        0.0295
     11 C         138.8108  144.6945  165.1849 C.ar    1  UNL1        0.1406
     12 F         138.6717  145.2408  166.5749 F       1  UNL1       -0.2042
     13 C         140.1733  144.5001  164.5883 C.ar    1  UNL1        0.0362
     14 C         140.3124  143.9537  163.1983 C.ar    1  UNL1        0.0372
     15 BR        141.6748  143.7593  162.6017 Br      1  UNL1       -0.0491
     16 C         139.7527  144.3783  157.3101 C.ar    1  UNL1        0.1931
     17 N         139.3282  144.1268  155.8936 N.ar    1  UNL1       -0.2297
     18 C         139.7169  145.3215  155.0740 C.ar    1  UNL1        0.1067
     19 C         140.3817  146.3114  155.9841 C.ar    1  UNL1        0.0577
     20 S         140.4038  145.7284  157.3660 S.2     1  UNL1       -0.0586
     21 C         138.9816  140.6401  161.9395 C.2     1  UNL1        0.3447
     22 O         137.6248  140.0667  162.2226 O.2     1  UNL1       -0.2450
     23 O         140.1457  140.2788  162.8137 O.3     1  UNL1       -0.4455
     24 C         139.3510  140.9295  165.2001 C.3     1  UNL1        0.0513
     25 C         139.9198  139.9162  164.2516 C.3     1  UNL1        0.2089
     26 C         139.2598  139.5474  159.1594 C.3     1  UNL1        0.1405
     27 N         140.5115  138.7967  158.8137 N.3     1  UNL1       -0.2617
     28 C         141.6541  138.7560  159.7847 C.3     1  UNL1        0.1050
     29 C         142.9058  138.0052  159.4390 C.3     1  UNL1        0.1595
     30 O         143.0150  137.2951  158.1222 O.3     1  UNL1       -0.3508
     31 C         141.8724  137.3358  157.1512 C.3     1  UNL1        0.1595
     32 C         140.6207  138.0865  157.4969 C.3     1  UNL1        0.1050
@<TRIPOS>BOND
     1    24    25    1
     2    25    23    1
     3    23    21    1
     4    21    22    2
     5    21     1    1
     6     1     2    2
     7     2    26    1
     8    26    27    1
     9    27    28    1
    10    28    29    1
    11    29    30    1
    12    30    31    1
    13    31    32    1
    14     2     3    1
    15     3     4    1
    16     4    16    1
    17    16    17   ar
    18    17    18   ar
    19    18    19   ar
    20    19    20   ar
    21     4     5    2
    22     5     6    1
    23     6     8    1
    24     8     9   ar
    25     9    10   ar
    26    10    11   ar
    27    11    12    1
    28    11    13   ar
    29    13    14   ar
    30    14    15    1
    31     6     1    1
    32    14     8   ar
    33    32    27    1
    34    20    16   ar
    35     3     7    1
@<TRIPOS>MOLECULE
*****
 32 35 0 0 0
SMALL
GASTEIGER

@<TRIPOS>ATOM
      1 C         139.5834  142.1146  163.7178 C.2     1  UNL1        0.1397
      2 C         139.5795  142.0185  162.2209 C.2     1  UNL1        0.1355
      3 N         140.4496  141.0093  161.5320 N.pl3   1  UNL1       -0.1998
      4 C         141.3235  140.0964  162.3399 C.2     1  UNL1        0.3442
      5 N         141.3273  140.1925  163.8368 N.2     1  UNL1       -0.0580
      6 C         140.4573  141.2017  164.5257 C.3     1  UNL1        0.2692
      7 H         140.4470  140.9462  160.5495 H       1  UNL1        0.2983
      8 C         140.4612  141.2978  166.0227 C.ar    1  UNL1        0.0371
      9 C         141.3517  142.2914  166.7081 C.ar    1  UNL1        0.0030
     10 C         141.3556  142.3876  168.2050 C.ar    1  UNL1        0.0295
     11 C         140.4689  141.4902  169.0165 C.ar    1  UNL1        0.1406
     12 F         140.4729  141.5863  170.5134 F       1  UNL1       -0.2042
     13 C         139.5784  140.4966  168.3311 C.ar    1  UNL1        0.0362
     14 C         139.5746  140.4004  166.8342 C.ar    1  UNL1        0.0372
     15 BR        138.6841  139.4068  166.1488 Br      1  UNL1       -0.0491
     16 C         142.1935  139.0872  161.6509 C.ar    1  UNL1        0.1931
     17 N         143.4793  138.5241  162.1798 N.ar    1  UNL1       -0.2297
     18 C         144.0110  137.5529  161.1679 C.ar    1  UNL1        0.1067
     19 C         143.0538  137.5157  160.0136 C.ar    1  UNL1        0.0577
     20 S         141.9306  138.4640  160.3121 S.2     1  UNL1       -0.0586
     21 C         138.7133  143.1238  164.4068 C.2     1  UNL1        0.3447
     22 O         137.2722  142.8098  164.6795 O.2     1  UNL1       -0.2450
     23 O         139.2845  144.4468  164.8230 O.3     1  UNL1       -0.4455
     24 C         141.6572  145.0167  163.9309 C.3     1  UNL1        0.0513
     25 C         140.1704  145.2102  163.8836 C.3     1  UNL1        0.2089
     26 C         138.7056  142.9314  161.4129 C.3     1  UNL1        0.1405
     27 N         139.2142  143.5124  160.1270 N.3     1  UNL1       -0.2617
     28 C         138.8421  142.8794  158.8190 C.3     1  UNL1        0.1050
     29 C         139.3507  143.4605  157.5330 C.3     1  UNL1        0.1595
     30 O         140.2314  144.6745  157.5550 O.3     1  UNL1       -0.3508
     31 C         140.6036  145.3075  158.8630 C.3     1  UNL1        0.1595
     32 C         140.0950  144.7265  160.1489 C.3     1  UNL1        0.1050
@<TRIPOS>BOND
     1    24    25    1
     2    25    23    1
     3    23    21    1
     4    21    22    2
     5    21     1    1
     6     1     2    2
     7     2    26    1
     8    26    27    1
     9    27    28    1
    10    28    29    1
    11    29    30    1
    12    30    31    1
    13    31    32    1
    14     2     3    1
    15     3     4    1
    16     4    16    1
    17    16    17   ar
    18    17    18   ar
    19    18    19   ar
    20    19    20   ar
    21     4     5    2
    22     5     6    1
    23     6     8    1
    24     8     9   ar
    25     9    10   ar
    26    10    11   ar
    27    11    12    1
    28    11    13   ar
    29    13    14   ar
    30    14    15    1
    31     6     1    1
    32    14     8   ar
    33    32    27    1
    34    20    16   ar
    35     3     7    1
@<TRIPOS>MOLECULE
*****
 32 35 0 0 0
SMALL
GASTEIGER

@<TRIPOS>ATOM
      1 C         141.8213  143.4767  160.3635 C.2     1  UNL1        0.1397
      2 C         142.6585  143.5471  159.1209 C.2     1  UNL1        0.1355
      3 N         142.2064  144.3797  157.9580 N.pl3   1  UNL1       -0.1998
      4 C         140.9170  145.1420  158.0377 C.2     1  UNL1        0.3442
      5 N         140.0797  145.0716  159.2803 N.2     1  UNL1       -0.0580
      6 C         140.5319  144.2390  160.4432 C.3     1  UNL1        0.2692
      7 H         142.7559  144.4259  157.1425 H       1  UNL1        0.2983
      8 C         139.6946  144.1686  161.6858 C.ar    1  UNL1        0.0371
      9 C         139.9839  145.0846  162.8379 C.ar    1  UNL1        0.0030
     10 C         139.1467  145.0143  164.0805 C.ar    1  UNL1        0.0295
     11 C         138.0201  144.0280  164.1711 C.ar    1  UNL1        0.1406
     12 F         137.1829  143.9577  165.4136 F       1  UNL1       -0.2042
     13 C         137.7309  143.1120  163.0190 C.ar    1  UNL1        0.0362
     14 C         138.5682  143.1823  161.7763 C.ar    1  UNL1        0.0372
     15 BR        138.2789  142.2664  160.6242 Br      1  UNL1       -0.0491
     16 C         140.4648  145.9746  156.8749 C.ar    1  UNL1        0.1931
     17 N         139.3845  147.0148  156.9024 N.ar    1  UNL1       -0.2297
     18 C         139.2655  147.5963  155.5248 C.ar    1  UNL1        0.1067
     19 C         140.2723  146.9154  154.6458 C.ar    1  UNL1        0.0577
     20 S         141.0135  145.9131  155.4802 S.2     1  UNL1       -0.0586
     21 C         142.2735  142.6441  161.5264 C.2     1  UNL1        0.3447
     22 O         141.5310  141.3913  161.8855 O.2     1  UNL1       -0.2450
     23 O         143.4682  143.0643  162.3301 O.3     1  UNL1       -0.4455
     24 C         143.4270  145.0513  164.0035 C.3     1  UNL1        0.0513
     25 C         143.6983  144.5162  162.6287 C.3     1  UNL1        0.2089
     26 C         143.9480  142.7848  159.0411 C.3     1  UNL1        0.1405
     27 N         144.0597  141.5924  158.1381 N.3     1  UNL1       -0.2617
     28 C         145.1198  141.5513  157.0777 C.3     1  UNL1        0.1050
     29 C         145.2315  140.3587  156.1746 C.3     1  UNL1        0.1595
     30 O         144.2831  139.2074  156.3320 O.3     1  UNL1       -0.3508
     31 C         143.2230  139.2485  157.3924 C.3     1  UNL1        0.1595
     32 C         143.1113  140.4409  158.2954 C.3     1  UNL1        0.1050
@<TRIPOS>BOND
     1    24    25    1
     2    25    23    1
     3    23    21    1
     4    21    22    2
     5    21     1    1
     6     1     2    2
     7     2    26    1
     8    26    27    1
     9    27    28    1
    10    28    29    1
    11    29    30    1
    12    30    31    1
    13    31    32    1
    14     2     3    1
    15     3     4    1
    16     4    16    1
    17    16    17   ar
    18    17    18   ar
    19    18    19   ar
    20    19    20   ar
    21     4     5    2
    22     5     6    1
    23     6     8    1
    24     8     9   ar
    25     9    10   ar
    26    10    11   ar
    27    11    12    1
    28    11    13   ar
    29    13    14   ar
    30    14    15    1
    31     6     1    1
    32    14     8   ar
    33    32    27    1
    34    20    16   ar
    35     3     7    1
@<TRIPOS>MOLECULE
*****
 32 35 0 0 0
SMALL
GASTEIGER

@<TRIPOS>ATOM
      1 C         140.0177  141.3188  160.9551 C.2     1  UNL1        0.1397
      2 C         140.2194  140.6113  159.6480 C.2     1  UNL1        0.1355
      3 N         139.6556  141.1928  158.3855 N.pl3   1  UNL1       -0.1998
      4 C         138.8900  142.4819  158.4302 C.2     1  UNL1        0.3442
      5 N         138.6882  143.1895  159.7373 N.2     1  UNL1       -0.0580
      6 C         139.2521  142.6079  160.9998 C.3     1  UNL1        0.2692
      7 H         139.7880  140.7284  157.5276 H       1  UNL1        0.2983
      8 C         139.0503  143.3155  162.3070 C.ar    1  UNL1        0.0371
      9 C         137.8324  143.0293  163.1345 C.ar    1  UNL1        0.0030
     10 C         137.6306  143.7369  164.4416 C.ar    1  UNL1        0.0295
     11 C         138.6467  144.7307  164.9213 C.ar    1  UNL1        0.1406
     12 F         138.4449  145.4382  166.2284 F       1  UNL1       -0.2042
     13 C         139.8646  145.0169  164.0937 C.ar    1  UNL1        0.0362
     14 C         140.0664  144.3093  162.7865 C.ar    1  UNL1        0.0372
     15 BR        141.2843  144.5955  161.9590 Br      1  UNL1       -0.0491
     16 C         138.3261  143.0635  157.1677 C.ar    1  UNL1        0.1931
     17 N         138.8865  144.2281  156.4063 N.ar    1  UNL1       -0.2297
     18 C         138.0096  144.4670  155.2130 C.ar    1  UNL1        0.1067
     19 C         136.9073  143.4499  155.2368 C.ar    1  UNL1        0.0577
     20 S         137.1029  142.5826  156.4449 S.2     1  UNL1       -0.0586
     21 C         140.5815  140.7373  162.2176 C.2     1  UNL1        0.3447
     22 O         141.9738  141.0907  162.6497 O.2     1  UNL1       -0.2450
     23 O         139.7532  139.8023  163.0480 O.3     1  UNL1       -0.4455
     24 C         138.1063  138.0887  161.9983 C.3     1  UNL1        0.0513
     25 C         138.3675  139.4348  162.6066 C.3     1  UNL1        0.2089
     26 C         140.9851  139.3221  159.6033 C.3     1  UNL1        0.1405
     27 N         141.9957  139.0872  158.5200 N.3     1  UNL1       -0.2617
     28 C         143.0174  140.1396  158.2065 C.3     1  UNL1        0.1050
     29 C         144.0280  139.9046  157.1231 C.3     1  UNL1        0.1595
     30 O         144.0168  138.6172  156.3535 O.3     1  UNL1       -0.3508
     31 C         142.9950  137.5648  156.6670 C.3     1  UNL1        0.1595
     32 C         141.9845  137.7997  157.7503 C.3     1  UNL1        0.1050
@<TRIPOS>BOND
     1    24    25    1
     2    25    23    1
     3    23    21    1
     4    21    22    2
     5    21     1    1
     6     1     2    2
     7     2    26    1
     8    26    27    1
     9    27    28    1
    10    28    29    1
    11    29    30    1
    12    30    31    1
    13    31    32    1
    14     2     3    1
    15     3     4    1
    16     4    16    1
    17    16    17   ar
    18    17    18   ar
    19    18    19   ar
    20    19    20   ar
    21     4     5    2
    22     5     6    1
    23     6     8    1
    24     8     9   ar
    25     9    10   ar
    26    10    11   ar
    27    11    12    1
    28    11    13   ar
    29    13    14   ar
    30    14    15    1
    31     6     1    1
    32    14     8   ar
    33    32    27    1
    34    20    16   ar
    35     3     7    1
@<TRIPOS>MOLECULE
*****
 32 35 0 0 0
SMALL
GASTEIGER

@<TRIPOS>ATOM
      1 C         140.3473  140.6600  162.1481 C.2     1  UNL1        0.1397
      2 C         139.4907  141.0347  160.9751 C.2     1  UNL1        0.1355
      3 N         139.5923  140.2604  159.6945 N.pl3   1  UNL1       -0.1998
      4 C         140.5504  139.1114  159.5867 C.2     1  UNL1        0.3442
      5 N         141.4070  138.7367  160.7597 N.2     1  UNL1       -0.0580
      6 C         141.3054  139.5110  162.0403 C.3     1  UNL1        0.2692
      7 H         139.0301  140.5064  158.9246 H       1  UNL1        0.2983
      8 C         142.1620  139.1362  163.2133 C.ar    1  UNL1        0.0371
      9 C         141.6194  138.2315  164.2797 C.ar    1  UNL1        0.0030
     10 C         142.4759  137.8567  165.4526 C.ar    1  UNL1        0.0295
     11 C         143.8752  138.3866  165.5592 C.ar    1  UNL1        0.1406
     12 F         144.7317  138.0118  166.7322 F       1  UNL1       -0.2042
     13 C         144.4178  139.2913  164.4929 C.ar    1  UNL1        0.0362
     14 C         143.5612  139.6661  163.3199 C.ar    1  UNL1        0.0372
     15 BR        144.1039  140.5708  162.2536 Br      1  UNL1       -0.0491
     16 C         140.6520  138.3371  158.3060 C.ar    1  UNL1        0.1931
     17 N         139.5115  137.9761  157.4011 N.ar    1  UNL1       -0.2297
     18 C         140.0666  137.2038  156.2412 C.ar    1  UNL1        0.1067
     19 C         141.5502  137.0874  156.4293 C.ar    1  UNL1        0.0577
     20 S         141.9120  137.7878  157.7054 S.2     1  UNL1       -0.0586
     21 C         140.2457  141.4343  163.4288 C.2     1  UNL1        0.3447
     22 O         141.3017  142.4387  163.7837 O.2     1  UNL1       -0.2450
     23 O         139.0881  141.2042  164.3545 O.3     1  UNL1       -0.4455
     24 C         138.2772  139.0908  165.6296 C.3     1  UNL1        0.0513
     25 C         138.3826  139.8805  164.3586 C.3     1  UNL1        0.2089
     26 C         138.5325  142.1838  161.0828 C.3     1  UNL1        0.1405
     27 N         139.0513  143.5900  161.1415 N.3     1  UNL1       -0.2617
     28 C         139.8901  144.1274  160.0201 C.3     1  UNL1        0.1050
     29 C         140.4089  145.5336  160.0788 C.3     1  UNL1        0.1595
     30 O         140.0889  146.4024  161.2589 O.3     1  UNL1       -0.3508
     31 C         139.2500  145.8651  162.3803 C.3     1  UNL1        0.1595
     32 C         138.7313  144.4589  162.3217 C.3     1  UNL1        0.1050
@<TRIPOS>BOND
     1    24    25    1
     2    25    23    1
     3    23    21    1
     4    21    22    2
     5    21     1    1
     6     1     2    2
     7     2    26    1
     8    26    27    1
     9    27    28    1
    10    28    29    1
    11    29    30    1
    12    30    31    1
    13    31    32    1
    14     2     3    1
    15     3     4    1
    16     4    16    1
    17    16    17   ar
    18    17    18   ar
    19    18    19   ar
    20    19    20   ar
    21     4     5    2
    22     5     6    1
    23     6     8    1
    24     8     9   ar
    25     9    10   ar
    26    10    11   ar
    27    11    12    1
    28    11    13   ar
    29    13    14   ar
    30    14    15    1
    31     6     1    1
    32    14     8   ar
    33    32    27    1
    34    20    16   ar
    35     3     7    1
@<TRIPOS>MOLECULE
*****
 32 35 0 0 0
SMALL
GASTEIGER

@<TRIPOS>ATOM
      1 C         142.3004  140.5041  161.0991 C.2     1  UNL1        0.1397
      2 C         143.0561  141.0814  159.9392 C.2     1  UNL1        0.1355
      3 N         143.2971  140.2515  158.7132 N.pl3   1  UNL1       -0.1998
      4 C         142.7823  138.8441  158.6471 C.2     1  UNL1        0.3442
      5 N         142.0266  138.2668  159.8071 N.2     1  UNL1       -0.0580
      6 C         141.7857  139.0967  161.0331 C.3     1  UNL1        0.2692
      7 H         143.7931  140.6304  157.9518 H       1  UNL1        0.2983
      8 C         141.0299  138.5193  162.1931 C.ar    1  UNL1        0.0371
      9 C         141.7714  137.8574  163.3165 C.ar    1  UNL1        0.0030
     10 C         141.0158  137.2800  164.4765 C.ar    1  UNL1        0.0295
     11 C         139.5185  137.3644  164.5130 C.ar    1  UNL1        0.1406
     12 F         138.7629  136.7870  165.6729 F       1  UNL1       -0.2042
     13 C         138.7770  138.0263  163.3895 C.ar    1  UNL1        0.0362
     14 C         139.5328  138.6037  162.2296 C.ar    1  UNL1        0.0372
     15 BR        138.7913  139.2656  161.1061 Br      1  UNL1       -0.0491
     16 C         143.0233  138.0142  157.4211 C.ar    1  UNL1        0.1931
     17 N         143.9789  138.3377  156.3111 N.ar    1  UNL1       -0.2297
     18 C         143.8971  137.2384  155.2938 C.ar    1  UNL1        0.1067
     19 C         142.8910  136.2354  155.7751 C.ar    1  UNL1        0.0577
     20 S         142.3509  136.7149  157.0898 S.2     1  UNL1       -0.0586
     21 C         142.0595  141.3340  162.3251 C.2     1  UNL1        0.3447
     22 O         140.7530  142.0495  162.5016 O.2     1  UNL1       -0.2450
     23 O         143.1250  141.4485  163.3747 O.3     1  UNL1       -0.4455
     24 C         144.8484  139.7465  164.3145 C.3     1  UNL1        0.0513
     25 C         144.4065  140.6828  163.2290 C.3     1  UNL1        0.2089
     26 C         143.5709  142.4888  160.0052 C.3     1  UNL1        0.1405
     27 N         142.7794  143.6064  159.3932 N.3     1  UNL1       -0.2617
     28 C         141.7900  144.3677  160.2248 C.3     1  UNL1        0.1050
     29 C         140.9985  145.4853  159.6128 C.3     1  UNL1        0.1595
     30 O         141.1964  145.8416  158.1693 O.3     1  UNL1       -0.3508
     31 C         142.1858  145.0803  157.3377 C.3     1  UNL1        0.1595
     32 C         142.9773  143.9627  157.9496 C.3     1  UNL1        0.1050
@<TRIPOS>BOND
     1    24    25    1
     2    25    23    1
     3    23    21    1
     4    21    22    2
     5    21     1    1
     6     1     2    2
     7     2    26    1
     8    26    27    1
     9    27    28    1
    10    28    29    1
    11    29    30    1
    12    30    31    1
    13    31    32    1
    14     2     3    1
    15     3     4    1
    16     4    16    1
    17    16    17   ar
    18    17    18   ar
    19    18    19   ar
    20    19    20   ar
    21     4     5    2
    22     5     6    1
    23     6     8    1
    24     8     9   ar
    25     9    10   ar
    26    10    11   ar
    27    11    12    1
    28    11    13   ar
    29    13    14   ar
    30    14    15    1
    31     6     1    1
    32    14     8   ar
    33    32    27    1
    34    20    16   ar
    35     3     7    1
