@<TRIPOS>MOLECULE
*****
 30 32 0 0 0
SMALL
GASTEIGER

@<TRIPOS>ATOM
      1 C         142.3102  144.1431  161.8964 C.ar    1  UNL1        0.1522
      2 C         141.2323  144.9927  162.5014 C.ar    1  UNL1        0.0779
      3 CL        141.2086  145.2325  163.9820 Cl      1  UNL1       -0.0808
      4 C         140.1779  145.6025  161.6259 C.ar    1  UNL1        0.0156
      5 C         140.2015  145.3627  160.1455 C.ar    1  UNL1        0.0353
      6 C         141.2794  144.5131  159.5404 C.ar    1  UNL1        0.1435
      7 C         142.3338  143.9033  160.4159 C.ar    1  UNL1        0.1805
      8 O         143.4119  143.0537  159.8107 O.3     1  UNL1       -0.5023
      9 H         143.4266  142.9039  158.8859 H       1  UNL1        0.2923
     10 S         143.3646  143.5333  162.7718 S.O2    1  UNL1        0.0108
     11 O         142.4380  142.3998  163.0982 O.2     1  UNL1       -0.1686
     12 O         144.2912  144.6668  162.4454 O.2     1  UNL1       -0.1686
     13 C         145.3933  141.9384  163.0727 C.3     1  UNL1        0.0257
     14 C         144.4190  142.9235  163.6472 C.3     1  UNL1        0.1341
     15 C         144.4991  143.2988  165.0973 C.3     1  UNL1        0.0257
     16 N         141.3031  144.2733  158.0598 N.pl3   1  UNL1       -0.2040
     17 H         141.8821  143.5713  157.6841 H       1  UNL1        0.2511
     18 C         140.4445  145.1030  157.1519 C.2     1  UNL1        0.3684
     19 N         139.2333  144.6272  156.4059 N.am    1  UNL1       -0.0043
     20 C         138.6866  145.7843  155.6234 C.2     1  UNL1        0.3517
     21 O         137.4787  145.7555  154.7346 O.2     1  UNL1       -0.2499
     22 C         139.5600  146.9753  155.8859 C.3     1  UNL1        0.2257
     23 N         140.6464  146.5542  156.8305 N.pl3   1  UNL1       -0.2201
     24 H         141.3657  147.1293  157.1785 H       1  UNL1        0.2455
     25 C         139.3788  148.3465  155.3056 C.3     1  UNL1        0.0448
     26 C         139.8798  148.6487  153.9245 C.3     1  UNL1        0.0037
     27 C         139.6986  150.0200  153.3442 C.3     1  UNL1        0.0001
     28 C         139.0163  151.0891  154.1450 C.3     1  UNL1        0.0000
     29 C         138.5151  150.7869  155.5261 C.3     1  UNL1        0.0001
     30 C         138.6964  149.4157  156.1064 C.3     1  UNL1        0.0037
@<TRIPOS>BOND
     1    13    14    1
     2    14    15    1
     3    14    10    1
     4    10    11    2
     5    10    12    2
     6    10     1    1
     7     1     2   ar
     8     2     3    1
     9     2     4   ar
    10     4     5   ar
    11     5     6   ar
    12     6    16    1
    13    16    18    1
    14    18    19    2
    15    19    20    1
    16    20    21    2
    17    20    22    1
    18    22    25    1
    19    25    26    1
    20    26    27    1
    21    27    28    1
    22    28    29    1
    23    29    30    1
    24    22    23    1
    25     6     7   ar
    26     7     8    1
    27     7     1   ar
    28    23    18    1
    29    30    25    1
    30    16    17    1
    31    23    24    1
    32     8     9    1
@<TRIPOS>MOLECULE
*****
 30 32 0 0 0
SMALL
GASTEIGER

@<TRIPOS>ATOM
      1 C         140.0297  143.9606  161.2629 C.ar    1  UNL1        0.1522
      2 C         139.4747  145.0514  162.1301 C.ar    1  UNL1        0.0779
      3 CL        139.7243  146.4884  161.7795 Cl      1  UNL1       -0.0808
      4 C         138.6702  144.7053  163.3479 C.ar    1  UNL1        0.0156
      5 C         138.4207  143.2684  163.6985 C.ar    1  UNL1        0.0353
      6 C         138.9757  142.1776  162.8313 C.ar    1  UNL1        0.1435
      7 C         139.7802  142.5236  161.6136 C.ar    1  UNL1        0.1805
      8 O         140.3352  141.4327  160.7464 O.3     1  UNL1       -0.5023
      9 H         140.1793  140.5351  160.9654 H       1  UNL1        0.2923
     10 S         140.8342  144.3066  160.0451 S.O2    1  UNL1        0.0108
     11 O         142.0531  144.4851  160.9011 O.2     1  UNL1       -0.1686
     12 O         139.6154  144.1281  159.1892 O.2     1  UNL1       -0.1686
     13 C         142.7833  143.7772  158.4109 C.3     1  UNL1        0.0257
     14 C         141.6387  144.6527  158.8274 C.3     1  UNL1        0.1341
     15 C         141.2987  145.8742  158.0261 C.3     1  UNL1        0.0257
     16 N         138.7261  140.7406  163.1819 N.pl3   1  UNL1       -0.2040
     17 H         138.5186  140.0898  162.4730 H       1  UNL1        0.2511
     18 C         138.7928  140.2952  164.6127 C.2     1  UNL1        0.3684
     19 N         137.8276  139.3713  165.2944 N.am    1  UNL1       -0.0043
     20 C         138.2747  139.2006  166.7160 C.2     1  UNL1        0.3517
     21 O         137.5988  138.3592  167.7578 O.2     1  UNL1       -0.2499
     22 C         139.5163  140.0190  166.9129 C.3     1  UNL1        0.2257
     23 N         139.8365  140.6955  165.6130 N.pl3   1  UNL1       -0.2201
     24 H         140.5980  141.2966  165.4457 H       1  UNL1        0.2455
     25 C         140.3000  140.1396  168.1862 C.3     1  UNL1        0.0448
     26 C         139.6093  140.5357  169.4574 C.3     1  UNL1        0.0037
     27 C         140.3930  140.6564  170.7306 C.3     1  UNL1        0.0001
     28 C         141.8674  140.3810  170.7327 C.3     1  UNL1        0.0000
     29 C         142.5582  139.9849  169.4615 C.3     1  UNL1        0.0001
     30 C         141.7745  139.8643  168.1883 C.3     1  UNL1        0.0037
@<TRIPOS>BOND
     1    13    14    1
     2    14    15    1
     3    14    10    1
     4    10    11    2
     5    10    12    2
     6    10     1    1
     7     1     2   ar
     8     2     3    1
     9     2     4   ar
    10     4     5   ar
    11     5     6   ar
    12     6    16    1
    13    16    18    1
    14    18    19    2
    15    19    20    1
    16    20    21    2
    17    20    22    1
    18    22    25    1
    19    25    26    1
    20    26    27    1
    21    27    28    1
    22    28    29    1
    23    29    30    1
    24    22    23    1
    25     6     7   ar
    26     7     8    1
    27     7     1   ar
    28    23    18    1
    29    30    25    1
    30    16    17    1
    31    23    24    1
    32     8     9    1
@<TRIPOS>MOLECULE
*****
 30 32 0 0 0
SMALL
GASTEIGER

@<TRIPOS>ATOM
      1 C         142.0683  140.8135  165.5027 C.ar    1  UNL1        0.1522
      2 C         143.1989  139.8648  165.2352 C.ar    1  UNL1        0.0779
      3 CL        143.1370  138.4588  165.7544 Cl      1  UNL1       -0.0808
      4 C         144.3915  140.3220  164.4487 C.ar    1  UNL1        0.0156
      5 C         144.4535  141.7279  163.9295 C.ar    1  UNL1        0.0353
      6 C         143.3228  142.6766  164.1969 C.ar    1  UNL1        0.1435
      7 C         142.1302  142.2194  164.9835 C.ar    1  UNL1        0.1805
      8 O         140.9995  143.1682  165.2509 O.3     1  UNL1       -0.5023
      9 H         141.0382  144.0464  164.9266 H       1  UNL1        0.2923
     10 S         140.8757  140.3563  166.2892 S.O2    1  UNL1        0.0108
     11 O         140.1291  140.1069  165.0123 O.2     1  UNL1       -0.1686
     12 O         141.6223  140.6057  167.5661 O.2     1  UNL1       -0.1686
     13 C         138.5464  139.2093  166.3816 C.3     1  UNL1        0.0257
     14 C         139.6831  139.8991  167.0758 C.3     1  UNL1        0.1341
     15 C         139.6273  140.1317  168.5566 C.3     1  UNL1        0.0257
     16 N         143.3847  144.0826  163.6778 N.pl3   1  UNL1       -0.2040
     17 H         144.0685  144.7035  164.0186 H       1  UNL1        0.2511
     18 C         142.4049  144.5424  162.6393 C.2     1  UNL1        0.3684
     19 N         141.1499  145.3229  162.8957 N.am    1  UNL1       -0.0043
     20 C         140.4774  145.5654  161.5770 C.2     1  UNL1        0.3517
     21 O         139.1912  146.3081  161.3666 O.2     1  UNL1       -0.2499
     22 C         141.3168  144.9348  160.5056 C.3     1  UNL1        0.2257
     23 N         142.5081  144.3026  161.1622 N.pl3   1  UNL1       -0.2201
     24 H         143.2308  143.8157  160.7041 H       1  UNL1        0.2455
     25 C         141.0175  144.9362  159.0358 C.3     1  UNL1        0.0448
     26 C         141.8159  145.8038  158.1086 C.3     1  UNL1        0.0037
     27 C         141.5166  145.8052  156.6388 C.3     1  UNL1        0.0001
     28 C         140.4188  144.9390  156.0962 C.3     1  UNL1        0.0000
     29 C         139.6204  144.0713  157.0233 C.3     1  UNL1        0.0001
     30 C         139.9197  144.0699  158.4931 C.3     1  UNL1        0.0037
@<TRIPOS>BOND
     1    13    14    1
     2    14    15    1
     3    14    10    1
     4    10    11    2
     5    10    12    2
     6    10     1    1
     7     1     2   ar
     8     2     3    1
     9     2     4   ar
    10     4     5   ar
    11     5     6   ar
    12     6    16    1
    13    16    18    1
    14    18    19    2
    15    19    20    1
    16    20    21    2
    17    20    22    1
    18    22    25    1
    19    25    26    1
    20    26    27    1
    21    27    28    1
    22    28    29    1
    23    29    30    1
    24    22    23    1
    25     6     7   ar
    26     7     8    1
    27     7     1   ar
    28    23    18    1
    29    30    25    1
    30    16    17    1
    31    23    24    1
    32     8     9    1
@<TRIPOS>MOLECULE
*****
 30 32 0 0 0
SMALL
GASTEIGER

@<TRIPOS>ATOM
      1 C         143.1378  140.0288  162.7147 C.ar    1  UNL1        0.1522
      2 C         144.2200  140.2338  163.7329 C.ar    1  UNL1        0.0779
      3 CL        144.2471  139.3968  164.9775 Cl      1  UNL1       -0.0808
      4 C         145.2750  141.2757  163.5067 C.ar    1  UNL1        0.0156
      5 C         145.2479  142.1127  162.2623 C.ar    1  UNL1        0.0353
      6 C         144.1658  141.9077  161.2440 C.ar    1  UNL1        0.1435
      7 C         143.1107  140.8657  161.4702 C.ar    1  UNL1        0.1805
      8 O         142.0286  140.6608  160.4519 O.3     1  UNL1       -0.5023
      9 H         142.0116  141.1836  159.6745 H       1  UNL1        0.2923
     10 S         142.0828  138.9868  162.9409 S.O2    1  UNL1        0.0108
     11 O         141.1678  140.0350  163.5014 O.2     1  UNL1       -0.1686
     12 O         142.9978  137.9386  162.3804 O.2     1  UNL1       -0.1686
     13 C         141.1242  137.0236  164.3469 C.3     1  UNL1        0.0257
     14 C         141.0277  137.9448  163.1671 C.3     1  UNL1        0.1341
     15 C         139.8762  137.8241  162.2135 C.3     1  UNL1        0.0257
     16 N         144.1387  142.7447  159.9995 N.pl3   1  UNL1       -0.2040
     17 H         143.7223  143.6367  160.0152 H       1  UNL1        0.2511
     18 C         144.7460  142.2227  158.7312 C.2     1  UNL1        0.3684
     19 N         144.4428  140.9026  158.0867 N.am    1  UNL1       -0.0043
     20 C         145.2725  140.7931  156.8419 C.2     1  UNL1        0.3517
     21 O         145.2842  139.6346  155.8891 O.2     1  UNL1       -0.2499
     22 C         146.0886  142.0456  156.7171 C.3     1  UNL1        0.2257
     23 N         145.7631  142.9291  157.8848 N.pl3   1  UNL1       -0.2201
     24 H         146.1493  143.8167  158.0641 H       1  UNL1        0.2455
     25 C         147.0595  142.3594  155.6177 C.3     1  UNL1        0.0448
     26 C         146.6453  143.2474  154.4820 C.3     1  UNL1        0.0037
     27 C         147.6162  143.5612  153.3826 C.3     1  UNL1        0.0001
     28 C         149.0014  142.9870  153.4188 C.3     1  UNL1        0.0000
     29 C         149.4158  142.0990  154.5545 C.3     1  UNL1        0.0001
     30 C         148.4448  141.7852  155.6539 C.3     1  UNL1        0.0037
@<TRIPOS>BOND
     1    13    14    1
     2    14    15    1
     3    14    10    1
     4    10    11    2
     5    10    12    2
     6    10     1    1
     7     1     2   ar
     8     2     3    1
     9     2     4   ar
    10     4     5   ar
    11     5     6   ar
    12     6    16    1
    13    16    18    1
    14    18    19    2
    15    19    20    1
    16    20    21    2
    17    20    22    1
    18    22    25    1
    19    25    26    1
    20    26    27    1
    21    27    28    1
    22    28    29    1
    23    29    30    1
    24    22    23    1
    25     6     7   ar
    26     7     8    1
    27     7     1   ar
    28    23    18    1
    29    30    25    1
    30    16    17    1
    31    23    24    1
    32     8     9    1
@<TRIPOS>MOLECULE
*****
 30 32 0 0 0
SMALL
GASTEIGER

@<TRIPOS>ATOM
      1 C         138.9442  142.0171  161.2923 C.ar    1  UNL1        0.1522
      2 C         138.3673  141.3348  160.0875 C.ar    1  UNL1        0.0779
      3 CL        138.3291  142.0476  158.7682 Cl      1  UNL1       -0.0808
      4 C         137.8285  139.9395  160.2019 C.ar    1  UNL1        0.0156
      5 C         137.8667  139.2267  161.5211 C.ar    1  UNL1        0.0353
      6 C         138.4436  139.9090  162.7259 C.ar    1  UNL1        0.1435
      7 C         138.9823  141.3042  162.6115 C.ar    1  UNL1        0.1805
      8 O         139.5593  141.9866  163.8164 O.3     1  UNL1       -0.5023
      9 H         139.5831  141.5413  164.6404 H       1  UNL1        0.2923
     10 S         139.4829  143.4123  161.1779 S.O2    1  UNL1        0.0108
     11 O         140.7671  142.8710  160.6230 O.2     1  UNL1       -0.1686
     12 O         138.1988  143.9537  161.7328 O.2     1  UNL1       -0.1686
     13 C         139.6477  145.8419  162.0833 C.3     1  UNL1        0.0257
     14 C         140.0217  144.8076  161.0635 C.3     1  UNL1        0.1341
     15 C         140.9344  145.1684  159.9292 C.3     1  UNL1        0.0257
     16 N         138.4818  139.1961  164.0452 N.pl3   1  UNL1       -0.2040
     17 H         137.6804  138.7298  164.3761 H       1  UNL1        0.2511
     18 C         139.7410  139.1938  164.8602 C.2     1  UNL1        0.3684
     19 N         140.9333  138.3111  164.6383 N.am    1  UNL1       -0.0043
     20 C         141.9581  138.6455  165.6812 C.2     1  UNL1        0.3517
     21 O         143.3054  138.0033  165.8312 O.2     1  UNL1       -0.2499
     22 C         141.3993  139.7349  166.5478 C.3     1  UNL1        0.2257
     23 N         140.0290  140.0737  166.0404 N.pl3   1  UNL1       -0.2201
     24 H         139.4247  140.7542  166.4160 H       1  UNL1        0.2455
     25 C         142.0895  140.3733  167.7166 C.3     1  UNL1        0.0448
     26 C         142.6160  141.7733  167.6035 C.3     1  UNL1        0.0037
     27 C         143.3062  142.4117  168.7723 C.3     1  UNL1        0.0001
     28 C         143.4700  141.6501  170.0541 C.3     1  UNL1        0.0000
     29 C         142.9435  140.2501  170.1672 C.3     1  UNL1        0.0001
     30 C         142.2533  139.6117  168.9984 C.3     1  UNL1        0.0037
@<TRIPOS>BOND
     1    13    14    1
     2    14    15    1
     3    14    10    1
     4    10    11    2
     5    10    12    2
     6    10     1    1
     7     1     2   ar
     8     2     3    1
     9     2     4   ar
    10     4     5   ar
    11     5     6   ar
    12     6    16    1
    13    16    18    1
    14    18    19    2
    15    19    20    1
    16    20    21    2
    17    20    22    1
    18    22    25    1
    19    25    26    1
    20    26    27    1
    21    27    28    1
    22    28    29    1
    23    29    30    1
    24    22    23    1
    25     6     7   ar
    26     7     8    1
    27     7     1   ar
    28    23    18    1
    29    30    25    1
    30    16    17    1
    31    23    24    1
    32     8     9    1
@<TRIPOS>MOLECULE
*****
 30 32 0 0 0
SMALL
GASTEIGER

@<TRIPOS>ATOM
      1 C         139.5409  142.0564  160.7355 C.ar    1  UNL1        0.1522
      2 C         138.5714  141.5045  159.7327 C.ar    1  UNL1        0.0779
      3 CL        138.0497  142.3810  158.6329 Cl      1  UNL1       -0.0808
      4 C         138.1237  140.0762  159.8297 C.ar    1  UNL1        0.0156
      5 C         138.6453  139.1997  160.9295 C.ar    1  UNL1        0.0353
      6 C         139.6148  139.7515  161.9323 C.ar    1  UNL1        0.1435
      7 C         140.0625  141.1799  161.8353 C.ar    1  UNL1        0.1805
      8 O         141.0320  141.7317  162.8382 O.3     1  UNL1       -0.5023
      9 H         141.3579  141.1841  163.5252 H       1  UNL1        0.2923
     10 S         139.9886  143.4847  160.6385 S.O2    1  UNL1        0.0108
     11 O         138.7377  143.9244  161.3399 O.2     1  UNL1       -0.1686
     12 O         141.2395  143.0449  159.9372 O.2     1  UNL1       -0.1686
     13 C         141.2180  145.3745  159.3474 C.3     1  UNL1        0.0257
     14 C         140.4364  144.9130  160.5415 C.3     1  UNL1        0.1341
     15 C         140.1026  145.8798  161.6387 C.3     1  UNL1        0.0257
     16 N         140.1365  138.8750  163.0322 N.pl3   1  UNL1       -0.2040
     17 H         140.7482  138.1328  162.8219 H       1  UNL1        0.2511
     18 C         139.7262  139.1294  164.4523 C.2     1  UNL1        0.3684
     19 N         138.6048  138.4502  165.1812 N.am    1  UNL1       -0.0043
     20 C         138.5508  139.0085  166.5723 C.2     1  UNL1        0.3517
     21 O         137.5793  138.6122  167.6444 O.2     1  UNL1       -0.2499
     22 C         139.6388  140.0329  166.7033 C.3     1  UNL1        0.2257
     23 N         140.3652  140.1075  165.3930 N.pl3   1  UNL1       -0.2201
     24 H         141.1275  140.6953  165.1867 H       1  UNL1        0.2455
     25 C         139.9463  140.8407  167.9292 C.3     1  UNL1        0.0448
     26 C         140.0129  140.1726  169.2704 C.3     1  UNL1        0.0037
     27 C         140.3204  140.9804  170.4963 C.3     1  UNL1        0.0001
     28 C         140.5614  142.4563  170.3810 C.3     1  UNL1        0.0000
     29 C         140.4948  143.1245  169.0397 C.3     1  UNL1        0.0001
     30 C         140.1872  142.3167  167.8138 C.3     1  UNL1        0.0037
@<TRIPOS>BOND
     1    13    14    1
     2    14    15    1
     3    14    10    1
     4    10    11    2
     5    10    12    2
     6    10     1    1
     7     1     2   ar
     8     2     3    1
     9     2     4   ar
    10     4     5   ar
    11     5     6   ar
    12     6    16    1
    13    16    18    1
    14    18    19    2
    15    19    20    1
    16    20    21    2
    17    20    22    1
    18    22    25    1
    19    25    26    1
    20    26    27    1
    21    27    28    1
    22    28    29    1
    23    29    30    1
    24    22    23    1
    25     6     7   ar
    26     7     8    1
    27     7     1   ar
    28    23    18    1
    29    30    25    1
    30    16    17    1
    31    23    24    1
    32     8     9    1
@<TRIPOS>MOLECULE
*****
 30 32 0 0 0
SMALL
GASTEIGER

@<TRIPOS>ATOM
      1 C         143.2683  141.7849  164.4534 C.ar    1  UNL1        0.1522
      2 C         144.5322  141.2490  163.8490 C.ar    1  UNL1        0.0779
      3 CL        145.1818  140.0276  164.4290 Cl      1  UNL1       -0.0808
      4 C         145.1465  141.9344  162.6646 C.ar    1  UNL1        0.0156
      5 C         144.4970  143.1557  162.0847 C.ar    1  UNL1        0.0353
      6 C         143.2332  143.6916  162.6891 C.ar    1  UNL1        0.1435
      7 C         142.6188  143.0062  163.8735 C.ar    1  UNL1        0.1805
      8 O         141.3549  143.5422  164.4779 O.3     1  UNL1       -0.5023
      9 H         140.9492  144.3052  164.1156 H       1  UNL1        0.2923
     10 S         142.6540  141.0995  165.6378 S.O2    1  UNL1        0.0108
     11 O         141.9482  140.1459  164.7199 O.2     1  UNL1       -0.1686
     12 O         143.3597  142.0531  166.5558 O.2     1  UNL1       -0.1686
     13 C         142.7685  139.2925  167.5011 C.3     1  UNL1        0.0257
     14 C         142.0396  140.4141  166.8222 C.3     1  UNL1        0.1341
     15 C         140.6965  140.8502  167.3278 C.3     1  UNL1        0.0257
     16 N         142.5836  144.9131  162.1091 N.pl3   1  UNL1       -0.2040
     17 H         142.7421  145.7953  162.5163 H       1  UNL1        0.2511
     18 C         141.6925  144.7903  160.9088 C.2     1  UNL1        0.3684
     19 N         140.5485  143.8326  160.7542 N.am    1  UNL1       -0.0043
     20 C         139.9380  144.0540  159.4022 C.2     1  UNL1        0.3517
     21 O         138.7664  143.3113  158.8314 O.2     1  UNL1       -0.2499
     22 C         140.7047  145.1487  158.7210 C.3     1  UNL1        0.2257
     23 N         141.7891  145.6037  159.6521 N.pl3   1  UNL1       -0.2201
     24 H         142.4484  146.3119  159.4704 H       1  UNL1        0.2455
     25 C         140.4345  145.6928  157.3495 C.3     1  UNL1        0.0448
     26 C         141.1166  145.0918  156.1564 C.3     1  UNL1        0.0037
     27 C         140.8463  145.6359  154.7850 C.3     1  UNL1        0.0001
     28 C         139.8940  146.7809  154.6066 C.3     1  UNL1        0.0000
     29 C         139.2119  147.3819  155.7997 C.3     1  UNL1        0.0001
     30 C         139.4821  146.8378  157.1711 C.3     1  UNL1        0.0037
@<TRIPOS>BOND
     1    13    14    1
     2    14    15    1
     3    14    10    1
     4    10    11    2
     5    10    12    2
     6    10     1    1
     7     1     2   ar
     8     2     3    1
     9     2     4   ar
    10     4     5   ar
    11     5     6   ar
    12     6    16    1
    13    16    18    1
    14    18    19    2
    15    19    20    1
    16    20    21    2
    17    20    22    1
    18    22    25    1
    19    25    26    1
    20    26    27    1
    21    27    28    1
    22    28    29    1
    23    29    30    1
    24    22    23    1
    25     6     7   ar
    26     7     8    1
    27     7     1   ar
    28    23    18    1
    29    30    25    1
    30    16    17    1
    31    23    24    1
    32     8     9    1
@<TRIPOS>MOLECULE
*****
 30 32 0 0 0
SMALL
GASTEIGER

@<TRIPOS>ATOM
      1 C         141.3407  142.8009  165.1150 C.ar    1  UNL1        0.1522
      2 C         142.7951  142.8461  165.4790 C.ar    1  UNL1        0.0779
      3 CL        143.3506  141.8683  166.4717 Cl      1  UNL1       -0.0808
      4 C         143.6942  143.8692  164.8504 C.ar    1  UNL1        0.0156
      5 C         143.1388  144.8470  163.8578 C.ar    1  UNL1        0.0353
      6 C         141.6844  144.8018  163.4938 C.ar    1  UNL1        0.1435
      7 C         140.7853  143.7788  164.1224 C.ar    1  UNL1        0.1805
      8 O         139.3308  143.7336  163.7584 O.3     1  UNL1       -0.5023
      9 H         138.9839  144.3445  163.1383 H       1  UNL1        0.2923
     10 S         140.4417  141.7779  165.7436 S.O2    1  UNL1        0.0108
     11 O         140.5990  140.8990  164.5383 O.2     1  UNL1       -0.1686
     12 O         140.2843  142.6568  166.9489 O.2     1  UNL1       -0.1686
     13 C         138.4442  140.1259  165.5673 C.3     1  UNL1        0.0257
     14 C         139.5426  140.7549  166.3722 C.3     1  UNL1        0.1341
     15 C         139.7420  140.3608  167.8057 C.3     1  UNL1        0.0257
     16 N         141.1289  145.7797  162.5012 N.pl3   1  UNL1       -0.2040
     17 H         140.9895  146.7191  162.7607 H       1  UNL1        0.2511
     18 C         140.7859  145.3263  161.1131 C.2     1  UNL1        0.3684
     19 N         139.6865  144.3756  160.7426 N.am    1  UNL1       -0.0043
     20 C         139.7032  144.2057  159.2523 C.2     1  UNL1        0.3517
     21 O         138.7734  143.3418  158.4529 O.2     1  UNL1       -0.2499
     22 C         140.8131  145.0515  158.7018 C.3     1  UNL1        0.2257
     23 N         141.4822  145.7440  159.8518 N.pl3   1  UNL1       -0.2201
     24 H         142.2445  146.3639  159.7898 H       1  UNL1        0.2455
     25 C         141.1879  145.1818  157.2553 C.3     1  UNL1        0.0448
     26 C         140.4569  146.1521  156.3755 C.3     1  UNL1        0.0037
     27 C         140.8317  146.2824  154.9290 C.3     1  UNL1        0.0001
     28 C         141.9376  145.4424  154.3622 C.3     1  UNL1        0.0000
     29 C         142.6687  144.4721  155.2419 C.3     1  UNL1        0.0001
     30 C         142.2939  144.3418  156.6884 C.3     1  UNL1        0.0037
@<TRIPOS>BOND
     1    13    14    1
     2    14    15    1
     3    14    10    1
     4    10    11    2
     5    10    12    2
     6    10     1    1
     7     1     2   ar
     8     2     3    1
     9     2     4   ar
    10     4     5   ar
    11     5     6   ar
    12     6    16    1
    13    16    18    1
    14    18    19    2
    15    19    20    1
    16    20    21    2
    17    20    22    1
    18    22    25    1
    19    25    26    1
    20    26    27    1
    21    27    28    1
    22    28    29    1
    23    29    30    1
    24    22    23    1
    25     6     7   ar
    26     7     8    1
    27     7     1   ar
    28    23    18    1
    29    30    25    1
    30    16    17    1
    31    23    24    1
    32     8     9    1
@<TRIPOS>MOLECULE
*****
 30 32 0 0 0
SMALL
GASTEIGER

@<TRIPOS>ATOM
      1 C         139.6168  143.5549  160.3519 C.ar    1  UNL1        0.1522
      2 C         140.2316  144.9157  160.4940 C.ar    1  UNL1        0.0779
      3 CL        141.0469  145.4910  159.3740 Cl      1  UNL1       -0.0808
      4 C         140.0311  145.7013  161.7560 C.ar    1  UNL1        0.0156
      5 C         139.2158  145.1260  162.8760 C.ar    1  UNL1        0.0353
      6 C         138.6010  143.7653  162.7339 C.ar    1  UNL1        0.1435
      7 C         138.8015  142.9797  161.4719 C.ar    1  UNL1        0.1805
      8 O         138.1866  141.6188  161.3299 O.3     1  UNL1       -0.5023
      9 H         137.6773  141.2595  162.0295 H       1  UNL1        0.2923
     10 S         139.8173  142.7694  159.0899 S.O2    1  UNL1        0.0108
     11 O         141.1553  142.3098  159.5885 O.2     1  UNL1       -0.1686
     12 O         138.4793  143.2289  158.5913 O.2     1  UNL1       -0.1686
     13 C         139.6680  140.5257  157.7885 C.3     1  UNL1        0.0257
     14 C         140.0178  141.9838  157.8279 C.3     1  UNL1        0.1341
     15 C         140.5681  142.6563  156.6053 C.3     1  UNL1        0.0257
     16 N         137.7856  143.1900  163.8539 N.pl3   1  UNL1       -0.2040
     17 H         136.9159  143.5892  164.0852 H       1  UNL1        0.2511
     18 C         138.2953  142.0064  164.6215 C.2     1  UNL1        0.3684
     19 N         137.9287  140.5726  164.3769 N.am    1  UNL1       -0.0043
     20 C         138.6679  139.7288  165.3727 C.2     1  UNL1        0.3517
     21 O         138.5962  138.2349  165.4882 O.2     1  UNL1       -0.2499
     22 C         139.4914  140.6411  166.2327 C.3     1  UNL1        0.2257
     23 N         139.2611  142.0487  165.7684 N.pl3   1  UNL1       -0.2201
     24 H         139.6718  142.8582  166.1495 H       1  UNL1        0.2455
     25 C         140.3878  140.2197  167.3592 C.3     1  UNL1        0.0448
     26 C         139.8778  140.2356  168.7696 C.3     1  UNL1        0.0037
     27 C         140.7742  139.8142  169.8961 C.3     1  UNL1        0.0001
     28 C         142.1806  139.3770  169.6121 C.3     1  UNL1        0.0000
     29 C         142.6907  139.3612  168.2016 C.3     1  UNL1        0.0001
     30 C         141.7943  139.7825  167.0751 C.3     1  UNL1        0.0037
@<TRIPOS>BOND
     1    13    14    1
     2    14    15    1
     3    14    10    1
     4    10    11    2
     5    10    12    2
     6    10     1    1
     7     1     2   ar
     8     2     3    1
     9     2     4   ar
    10     4     5   ar
    11     5     6   ar
    12     6    16    1
    13    16    18    1
    14    18    19    2
    15    19    20    1
    16    20    21    2
    17    20    22    1
    18    22    25    1
    19    25    26    1
    20    26    27    1
    21    27    28    1
    22    28    29    1
    23    29    30    1
    24    22    23    1
    25     6     7   ar
    26     7     8    1
    27     7     1   ar
    28    23    18    1
    29    30    25    1
    30    16    17    1
    31    23    24    1
    32     8     9    1
