@<TRIPOS>MOLECULE
*****
 33 36 0 0 0
SMALL
GASTEIGER

@<TRIPOS>ATOM
      1 C         141.5452  143.6289  162.1940 C.3     1  UNL1        0.1751
      2 C         141.9044  143.8524  160.7549 C.ar    1  UNL1        0.0089
      3 C         142.8638  143.1516  159.8394 C.ar    1  UNL1       -0.0021
      4 C         143.0140  143.6082  158.4185 C.ar    1  UNL1       -0.0003
      5 C         142.2047  144.7657  157.9132 C.ar    1  UNL1        0.0001
      6 C         141.2453  145.4665  158.8287 C.ar    1  UNL1        0.0043
      7 C         141.0951  145.0099  160.2496 C.ar    1  UNL1        0.0516
      8 C         140.2358  145.5016  161.3764 C.2     1  UNL1        0.2493
      9 O         139.2681  146.6460  161.3126 O.2     1  UNL1       -0.2699
     10 N         140.5139  144.6481  162.5781 N.am    1  UNL1       -0.2657
     11 O         141.6183  141.1600  162.9996 O.2     1  UNL1       -0.2729
     12 C         142.1169  142.5716  163.0914 C.2     1  UNL1        0.2451
     13 N         143.1873  142.9261  164.0808 N.am    1  UNL1       -0.2988
     14 H         143.5146  143.8527  164.1410 H       1  UNL1        0.1498
     15 C         143.7591  141.8689  164.9782 C.3     1  UNL1        0.1164
     16 C         142.9906  141.4115  166.1824 C.ar    1  UNL1       -0.0026
     17 C         142.7978  139.9459  166.4370 C.ar    1  UNL1       -0.0027
     18 C         142.0293  139.4886  167.6413 C.ar    1  UNL1        0.0036
     19 C         141.4535  140.4969  168.5910 C.ar    1  UNL1        0.0714
     20 C         141.6462  141.9625  168.3363 C.ar    1  UNL1        0.0036
     21 C         142.4148  142.4198  167.1320 C.ar    1  UNL1       -0.0027
     22 C         140.6850  140.0395  169.7952 C.3     1  UNL1        0.4186
     23 F         139.9164  139.5822  170.9994 F       1  UNL1       -0.1659
     24 F         141.7338  139.0032  170.0709 F       1  UNL1       -0.1659
     25 F         139.6361  141.0759  169.5194 F       1  UNL1       -0.1659
     26 C         139.8733  144.7891  163.9271 C.3     1  UNL1        0.1007
     27 C         138.5822  144.0846  164.2216 C.3     1  UNL1        0.0673
     28 C         138.5494  142.5881  164.3177 C.ar    1  UNL1        0.0607
     29 C         139.1870  141.8975  165.4869 C.ar    1  UNL1        0.0148
     30 C         139.1542  140.4010  165.5830 C.ar    1  UNL1        0.0028
     31 C         138.4839  139.5949  164.5101 C.ar    1  UNL1        0.0207
     32 C         137.8464  140.2855  163.3411 C.ar    1  UNL1        0.0984
     33 N         137.8791  141.7821  163.2449 N.ar    1  UNL1       -0.2481
@<TRIPOS>BOND
     1    11    12    2
     2    12    13   am
     3    13    15    1
     4    15    16    1
     5    16    17   ar
     6    17    18   ar
     7    18    19   ar
     8    19    22    1
     9    22    23    1
    10    22    24    1
    11    22    25    1
    12    19    20   ar
    13    20    21   ar
    14    12     1    1
    15     1     2    1
    16     2     3   ar
    17     3     4   ar
    18     4     5   ar
    19     5     6   ar
    20     6     7   ar
    21     7     8    1
    22     8     9    2
    23     8    10   am
    24    10    26    1
    25    26    27    1
    26    27    28    1
    27    28    29   ar
    28    29    30   ar
    29    30    31   ar
    30    31    32   ar
    31    32    33   ar
    32    21    16   ar
    33    10     1    1
    34    33    28   ar
    35     7     2   ar
    36    13    14    1
@<TRIPOS>MOLECULE
*****
 33 36 0 0 0
SMALL
GASTEIGER

@<TRIPOS>ATOM
      1 C         142.0369  143.9590  162.0192 C.3     1  UNL1        0.1751
      2 C         142.0828  144.0572  160.5231 C.ar    1  UNL1        0.0089
      3 C         142.9519  143.3887  159.4996 C.ar    1  UNL1       -0.0021
      4 C         142.7621  143.6902  158.0426 C.ar    1  UNL1       -0.0003
      5 C         141.7033  144.6602  157.6090 C.ar    1  UNL1        0.0001
      6 C         140.8342  145.3287  158.6326 C.ar    1  UNL1        0.0043
      7 C         141.0239  145.0272  160.0896 C.ar    1  UNL1        0.0516
      8 C         140.3237  145.5285  161.3178 C.2     1  UNL1        0.2493
      9 O         139.1954  146.5165  161.3480 O.2     1  UNL1       -0.2699
     10 N         140.9497  144.8683  162.5104 N.am    1  UNL1       -0.2657
     11 O         144.2796  143.5962  163.2796 O.2     1  UNL1       -0.2729
     12 C         142.9227  143.1020  162.8741 C.2     1  UNL1        0.2451
     13 N         142.4515  141.7506  163.3235 N.am    1  UNL1       -0.2988
     14 H         141.5609  141.4262  163.0574 H       1  UNL1        0.1498
     15 C         143.3373  140.8935  164.1784 C.3     1  UNL1        0.1164
     16 C         143.1198  140.8353  165.6614 C.ar    1  UNL1       -0.0026
     17 C         142.8467  139.5198  166.3283 C.ar    1  UNL1       -0.0027
     18 C         142.6291  139.4617  167.8113 C.ar    1  UNL1        0.0036
     19 C         142.6846  140.7191  168.6274 C.ar    1  UNL1        0.0714
     20 C         142.9577  142.0346  167.9605 C.ar    1  UNL1        0.0036
     21 C         143.1753  142.0927  166.4774 C.ar    1  UNL1       -0.0027
     22 C         142.4670  140.6609  170.1104 C.3     1  UNL1        0.4186
     23 F         142.2494  140.6028  171.5934 F       1  UNL1       -0.1659
     24 F         141.5900  139.4568  169.9345 F       1  UNL1       -0.1659
     25 F         143.3440  141.8652  170.2862 F       1  UNL1       -0.1659
     26 C         140.5575  145.0803  163.9426 C.3     1  UNL1        0.1007
     27 C         139.2329  144.5813  164.4391 C.3     1  UNL1        0.0673
     28 C         138.9676  143.1069  164.5155 C.ar    1  UNL1        0.0607
     29 C         139.6185  142.2822  165.5862 C.ar    1  UNL1        0.0148
     30 C         139.3531  140.8079  165.6625 C.ar    1  UNL1        0.0028
     31 C         138.4369  140.1582  164.6682 C.ar    1  UNL1        0.0207
     32 C         137.7861  140.9829  163.5976 C.ar    1  UNL1        0.0984
     33 N         138.0514  142.4573  163.5213 N.ar    1  UNL1       -0.2481
@<TRIPOS>BOND
     1    11    12    2
     2    12    13   am
     3    13    15    1
     4    15    16    1
     5    16    17   ar
     6    17    18   ar
     7    18    19   ar
     8    19    22    1
     9    22    23    1
    10    22    24    1
    11    22    25    1
    12    19    20   ar
    13    20    21   ar
    14    12     1    1
    15     1     2    1
    16     2     3   ar
    17     3     4   ar
    18     4     5   ar
    19     5     6   ar
    20     6     7   ar
    21     7     8    1
    22     8     9    2
    23     8    10   am
    24    10    26    1
    25    26    27    1
    26    27    28    1
    27    28    29   ar
    28    29    30   ar
    29    30    31   ar
    30    31    32   ar
    31    32    33   ar
    32    21    16   ar
    33    10     1    1
    34    33    28   ar
    35     7     2   ar
    36    13    14    1
@<TRIPOS>MOLECULE
*****
 33 36 0 0 0
SMALL
GASTEIGER

@<TRIPOS>ATOM
      1 C         140.2574  138.7786  162.3469 C.3     1  UNL1        0.1751
      2 C         141.0538  138.4356  161.1230 C.ar    1  UNL1        0.0089
      3 C         142.4331  137.8727  160.9482 C.ar    1  UNL1       -0.0021
      4 C         142.9753  137.6305  159.5708 C.ar    1  UNL1       -0.0003
      5 C         142.1381  137.9512  158.3681 C.ar    1  UNL1        0.0001
      6 C         140.7589  138.5142  158.5429 C.ar    1  UNL1        0.0043
      7 C         140.2167  138.7564  159.9203 C.ar    1  UNL1        0.0516
      8 C         138.9029  139.2976  160.4011 C.2     1  UNL1        0.2493
      9 O         137.7639  139.7463  159.5342 O.2     1  UNL1       -0.2699
     10 N         138.9281  139.3113  161.9008 N.am    1  UNL1       -0.2657
     11 O         140.0278  137.6283  164.6651 O.2     1  UNL1       -0.2729
     12 C         140.7108  138.6172  163.7676 C.2     1  UNL1        0.2451
     13 N         141.8472  139.4448  164.2909 N.am    1  UNL1       -0.2988
     14 H         142.2954  140.0939  163.7019 H       1  UNL1        0.1498
     15 C         142.3005  139.2834  165.7116 C.3     1  UNL1        0.1164
     16 C         141.7193  140.1520  166.7876 C.ar    1  UNL1       -0.0026
     17 C         142.4763  141.3524  167.2731 C.ar    1  UNL1       -0.0027
     18 C         141.8950  142.2209  168.3491 C.ar    1  UNL1        0.0036
     19 C         140.5566  141.8891  168.9395 C.ar    1  UNL1        0.0714
     20 C         139.7995  140.6886  168.4540 C.ar    1  UNL1        0.0036
     21 C         140.3809  139.8200  167.3780 C.ar    1  UNL1       -0.0027
     22 C         139.9753  142.7576  170.0155 C.3     1  UNL1        0.4186
     23 F         139.3941  143.6263  171.0914 F       1  UNL1       -0.1659
     24 F         138.9789  141.6853  170.3429 F       1  UNL1       -0.1659
     25 F         140.9718  143.8300  169.6880 F       1  UNL1       -0.1659
     26 C         137.8187  139.7762  162.7970 C.3     1  UNL1        0.1007
     27 C         137.3427  141.1968  162.7262 C.3     1  UNL1        0.0673
     28 C         138.0289  142.2589  163.5331 C.ar    1  UNL1        0.0607
     29 C         138.9562  141.8725  164.6471 C.ar    1  UNL1        0.0148
     30 C         139.6425  142.9345  165.4541 C.ar    1  UNL1        0.0028
     31 C         139.4014  144.3829  165.1470 C.ar    1  UNL1        0.0207
     32 C         138.4742  144.7692  164.0331 C.ar    1  UNL1        0.0984
     33 N         137.7879  143.7072  163.2261 N.ar    1  UNL1       -0.2481
@<TRIPOS>BOND
     1    11    12    2
     2    12    13   am
     3    13    15    1
     4    15    16    1
     5    16    17   ar
     6    17    18   ar
     7    18    19   ar
     8    19    22    1
     9    22    23    1
    10    22    24    1
    11    22    25    1
    12    19    20   ar
    13    20    21   ar
    14    12     1    1
    15     1     2    1
    16     2     3   ar
    17     3     4   ar
    18     4     5   ar
    19     5     6   ar
    20     6     7   ar
    21     7     8    1
    22     8     9    2
    23     8    10   am
    24    10    26    1
    25    26    27    1
    26    27    28    1
    27    28    29   ar
    28    29    30   ar
    29    30    31   ar
    30    31    32   ar
    31    32    33   ar
    32    21    16   ar
    33    10     1    1
    34    33    28   ar
    35     7     2   ar
    36    13    14    1
@<TRIPOS>MOLECULE
*****
 33 36 0 0 0
SMALL
GASTEIGER

@<TRIPOS>ATOM
      1 C         143.3989  140.4570  162.0147 C.3     1  UNL1        0.1751
      2 C         143.7789  141.0055  160.6713 C.ar    1  UNL1        0.0089
      3 C         144.2306  142.3675  160.2345 C.ar    1  UNL1       -0.0021
      4 C         144.5471  142.6256  158.7912 C.ar    1  UNL1       -0.0003
      5 C         144.4119  141.5216  157.7847 C.ar    1  UNL1        0.0001
      6 C         143.9602  140.1596  158.2215 C.ar    1  UNL1        0.0043
      7 C         143.6437  139.9016  159.6648 C.ar    1  UNL1        0.0516
      8 C         143.1801  138.6709  160.3862 C.2     1  UNL1        0.2493
      9 O         142.9145  137.3319  159.7644 O.2     1  UNL1       -0.2699
     10 N         143.0288  139.0141  161.8385 N.am    1  UNL1       -0.2657
     11 O         144.6486  141.3387  164.1149 O.2     1  UNL1       -0.2729
     12 C         143.3904  141.2179  163.3074 C.2     1  UNL1        0.2451
     13 N         142.1235  141.8582  163.7925 N.am    1  UNL1       -0.2988
     14 H         141.2976  141.7790  163.2626 H       1  UNL1        0.1498
     15 C         142.1151  142.6191  165.0852 C.3     1  UNL1        0.1164
     16 C         141.5990  141.9691  166.3346 C.ar    1  UNL1       -0.0026
     17 C         140.8117  142.7718  167.3275 C.ar    1  UNL1       -0.0027
     18 C         140.2956  142.1217  168.5769 C.ar    1  UNL1        0.0036
     19 C         140.5668  140.6689  168.8335 C.ar    1  UNL1        0.0714
     20 C         141.3541  139.8662  167.8407 C.ar    1  UNL1        0.0036
     21 C         141.8702  140.5163  166.5912 C.ar    1  UNL1       -0.0027
     22 C         140.0507  140.0189  170.0829 C.3     1  UNL1        0.4186
     23 F         139.5347  139.3688  171.3324 F       1  UNL1       -0.1659
     24 F         138.7606  140.7709  169.9413 F       1  UNL1       -0.1659
     25 F         141.3409  139.2669  170.2246 F       1  UNL1       -0.1659
     26 C         142.5853  138.0788  162.9241 C.3     1  UNL1        0.1007
     27 C         141.1565  137.6264  162.9869 C.3     1  UNL1        0.0673
     28 C         140.1721  138.3673  163.8425 C.ar    1  UNL1        0.0607
     29 C         139.5351  137.6840  165.0161 C.ar    1  UNL1        0.0148
     30 C         138.5507  138.4250  165.8717 C.ar    1  UNL1        0.0028
     31 C         138.2034  139.8492  165.5537 C.ar    1  UNL1        0.0207
     32 C         138.8405  140.5324  164.3801 C.ar    1  UNL1        0.0984
     33 N         139.8248  139.7915  163.5245 N.ar    1  UNL1       -0.2481
@<TRIPOS>BOND
     1    11    12    2
     2    12    13   am
     3    13    15    1
     4    15    16    1
     5    16    17   ar
     6    17    18   ar
     7    18    19   ar
     8    19    22    1
     9    22    23    1
    10    22    24    1
    11    22    25    1
    12    19    20   ar
    13    20    21   ar
    14    12     1    1
    15     1     2    1
    16     2     3   ar
    17     3     4   ar
    18     4     5   ar
    19     5     6   ar
    20     6     7   ar
    21     7     8    1
    22     8     9    2
    23     8    10   am
    24    10    26    1
    25    26    27    1
    26    27    28    1
    27    28    29   ar
    28    29    30   ar
    29    30    31   ar
    30    31    32   ar
    31    32    33   ar
    32    21    16   ar
    33    10     1    1
    34    33    28   ar
    35     7     2   ar
    36    13    14    1
@<TRIPOS>MOLECULE
*****
 33 36 0 0 0
SMALL
GASTEIGER

@<TRIPOS>ATOM
      1 C         142.1190  143.9840  161.9132 C.3     1  UNL1        0.1751
      2 C         142.7611  143.5372  160.6333 C.ar    1  UNL1        0.0089
      3 C         143.9475  142.6617  160.3577 C.ar    1  UNL1       -0.0021
      4 C         144.3637  142.3860  158.9433 C.ar    1  UNL1       -0.0003
      5 C         143.5935  142.9858  157.8044 C.ar    1  UNL1        0.0001
      6 C         142.4071  143.8613  158.0799 C.ar    1  UNL1        0.0043
      7 C         141.9909  144.1370  159.4944 C.ar    1  UNL1        0.0516
      8 C         140.8729  144.9544  160.0705 C.2     1  UNL1        0.2493
      9 O         139.8545  145.7302  159.2888 O.2     1  UNL1       -0.2699
     10 N         140.9521  144.8599  161.5654 N.am    1  UNL1       -0.2657
     11 O         143.0508  144.6849  164.2349 O.2     1  UNL1       -0.2729
     12 C         142.5656  143.6189  163.2979 C.2     1  UNL1        0.2451
     13 N         142.5269  142.1877  163.7455 N.am    1  UNL1       -0.2988
     14 H         142.2084  141.4880  163.1305 H       1  UNL1        0.1498
     15 C         142.9735  141.8226  165.1302 C.3     1  UNL1        0.1164
     16 C         141.9602  141.4462  166.1701 C.ar    1  UNL1       -0.0026
     17 C         141.5693  142.4344  167.2288 C.ar    1  UNL1       -0.0027
     18 C         140.5560  142.0579  168.2687 C.ar    1  UNL1        0.0036
     19 C         139.9335  140.6933  168.2500 C.ar    1  UNL1        0.0714
     20 C         140.3244  139.7051  167.1914 C.ar    1  UNL1        0.0036
     21 C         141.3377  140.0816  166.1514 C.ar    1  UNL1       -0.0027
     22 C         138.9202  140.3169  169.2899 C.3     1  UNL1        0.4186
     23 F         137.9069  139.9405  170.3299 F       1  UNL1       -0.1659
     24 F         138.2848  139.3606  168.3247 F       1  UNL1       -0.1659
     25 F         139.5557  141.2732  170.2552 F       1  UNL1       -0.1659
     26 C         140.0268  145.5245  162.5411 C.3     1  UNL1        0.1007
     27 C         138.6235  145.0210  162.7063 C.3     1  UNL1        0.0673
     28 C         138.3789  143.5823  163.0532 C.ar    1  UNL1        0.0607
     29 C         138.5381  143.1148  164.4696 C.ar    1  UNL1        0.0148
     30 C         138.2934  141.6761  164.8165 C.ar    1  UNL1        0.0028
     31 C         137.8895  140.7049  163.7470 C.ar    1  UNL1        0.0207
     32 C         137.7303  141.1725  162.3307 C.ar    1  UNL1        0.0984
     33 N         137.9750  142.6112  161.9838 N.ar    1  UNL1       -0.2481
@<TRIPOS>BOND
     1    11    12    2
     2    12    13   am
     3    13    15    1
     4    15    16    1
     5    16    17   ar
     6    17    18   ar
     7    18    19   ar
     8    19    22    1
     9    22    23    1
    10    22    24    1
    11    22    25    1
    12    19    20   ar
    13    20    21   ar
    14    12     1    1
    15     1     2    1
    16     2     3   ar
    17     3     4   ar
    18     4     5   ar
    19     5     6   ar
    20     6     7   ar
    21     7     8    1
    22     8     9    2
    23     8    10   am
    24    10    26    1
    25    26    27    1
    26    27    28    1
    27    28    29   ar
    28    29    30   ar
    29    30    31   ar
    30    31    32   ar
    31    32    33   ar
    32    21    16   ar
    33    10     1    1
    34    33    28   ar
    35     7     2   ar
    36    13    14    1
@<TRIPOS>MOLECULE
*****
 33 36 0 0 0
SMALL
GASTEIGER

@<TRIPOS>ATOM
      1 C         142.2851  143.6094  161.7037 C.3     1  UNL1        0.1751
      2 C         141.7398  144.1328  160.4080 C.ar    1  UNL1        0.0089
      3 C         140.5059  144.9219  160.0841 C.ar    1  UNL1       -0.0021
      4 C         140.2157  145.3111  158.6649 C.ar    1  UNL1       -0.0003
      5 C         141.1594  144.9112  157.5696 C.ar    1  UNL1        0.0001
      6 C         142.3932  144.1222  157.8935 C.ar    1  UNL1        0.0043
      7 C         142.6834  143.7330  159.3128 C.ar    1  UNL1        0.0516
      8 C         143.8119  142.9625  159.9315 C.2     1  UNL1        0.2493
      9 O         144.9813  142.3720  159.2008 O.2     1  UNL1       -0.2699
     10 N         143.5657  142.8861  161.4092 N.am    1  UNL1       -0.2657
     11 O         141.7879  145.0851  163.7833 O.2     1  UNL1       -0.2729
     12 C         141.6595  143.7795  163.0564 C.2     1  UNL1        0.2451
     13 N         140.9054  142.6437  163.6821 N.am    1  UNL1       -0.2988
     14 H         140.8211  141.7866  163.2050 H       1  UNL1        0.1498
     15 C         140.2798  142.8137  165.0348 C.3     1  UNL1        0.1164
     16 C         140.9022  142.1654  166.2357 C.ar    1  UNL1       -0.0026
     17 C         142.3512  142.3968  166.5466 C.ar    1  UNL1       -0.0027
     18 C         142.9735  141.7484  167.7475 C.ar    1  UNL1        0.0036
     19 C         142.1468  140.8685  168.6377 C.ar    1  UNL1        0.0714
     20 C         140.6977  140.6371  168.3269 C.ar    1  UNL1        0.0036
     21 C         140.0754  141.2855  167.1258 C.ar    1  UNL1       -0.0027
     22 C         142.7691  140.2202  169.8386 C.3     1  UNL1        0.4186
     23 F         143.3914  139.5717  171.0396 F       1  UNL1       -0.1659
     24 F         143.7750  141.3301  169.9166 F       1  UNL1       -0.1659
     25 F         141.7632  139.1101  169.7606 F       1  UNL1       -0.1659
     26 C         144.4456  142.2058  162.4157 C.3     1  UNL1        0.1007
     27 C         144.4918  140.7080  162.4807 C.3     1  UNL1        0.0673
     28 C         143.6753  139.9762  163.5043 C.ar    1  UNL1        0.0607
     29 C         144.3374  139.4044  164.7228 C.ar    1  UNL1        0.0148
     30 C         143.5209  138.6726  165.7464 C.ar    1  UNL1        0.0028
     31 C         142.0422  138.5125  165.5514 C.ar    1  UNL1        0.0207
     32 C         141.3801  139.0843  164.3329 C.ar    1  UNL1        0.0984
     33 N         142.1967  139.8161  163.3094 N.ar    1  UNL1       -0.2481
@<TRIPOS>BOND
     1    11    12    2
     2    12    13   am
     3    13    15    1
     4    15    16    1
     5    16    17   ar
     6    17    18   ar
     7    18    19   ar
     8    19    22    1
     9    22    23    1
    10    22    24    1
    11    22    25    1
    12    19    20   ar
    13    20    21   ar
    14    12     1    1
    15     1     2    1
    16     2     3   ar
    17     3     4   ar
    18     4     5   ar
    19     5     6   ar
    20     6     7   ar
    21     7     8    1
    22     8     9    2
    23     8    10   am
    24    10    26    1
    25    26    27    1
    26    27    28    1
    27    28    29   ar
    28    29    30   ar
    29    30    31   ar
    30    31    32   ar
    31    32    33   ar
    32    21    16   ar
    33    10     1    1
    34    33    28   ar
    35     7     2   ar
    36    13    14    1
@<TRIPOS>MOLECULE
*****
 33 36 0 0 0
SMALL
GASTEIGER

@<TRIPOS>ATOM
      1 C         143.6492  141.3559  162.2528 C.3     1  UNL1        0.1751
      2 C         143.4112  140.3688  161.1487 C.ar    1  UNL1        0.0089
      3 C         143.3339  138.8708  161.1410 C.ar    1  UNL1       -0.0021
      4 C         143.0782  138.1397  159.8565 C.ar    1  UNL1       -0.0003
      5 C         142.8997  138.9065  158.5797 C.ar    1  UNL1        0.0001
      6 C         142.9770  140.4044  158.5874 C.ar    1  UNL1        0.0043
      7 C         143.2327  141.1356  159.8719 C.ar    1  UNL1        0.0516
      8 C         143.3605  142.5966  160.1869 C.2     1  UNL1        0.2493
      9 O         143.2502  143.7235  159.2032 O.2     1  UNL1       -0.2699
     10 N         143.6178  142.7327  161.6584 N.am    1  UNL1       -0.2657
     11 O         145.1778  141.3863  164.3533 O.2     1  UNL1       -0.2729
     12 C         143.8783  141.0243  163.6976 C.2     1  UNL1        0.2451
     13 N         142.8077  140.3307  164.4869 N.am    1  UNL1       -0.2988
     14 H         141.9547  140.0930  164.0566 H       1  UNL1        0.1498
     15 C         143.0368  139.9991  165.9317 C.3     1  UNL1        0.1164
     16 C         142.2563  140.7101  166.9972 C.ar    1  UNL1       -0.0026
     17 C         140.8420  140.3041  167.2881 C.ar    1  UNL1       -0.0027
     18 C         140.0616  141.0152  168.3536 C.ar    1  UNL1        0.0036
     19 C         140.6955  142.1323  169.1283 C.ar    1  UNL1        0.0714
     20 C         142.1099  142.5384  168.8374 C.ar    1  UNL1        0.0036
     21 C         142.8903  141.8273  167.7718 C.ar    1  UNL1       -0.0027
     22 C         139.9151  142.8434  170.1937 C.3     1  UNL1        0.4186
     23 F         139.1346  143.5544  171.2592 F       1  UNL1       -0.1659
     24 F         140.8512  144.0116  170.0999 F       1  UNL1       -0.1659
     25 F         138.9789  141.6751  170.2876 F       1  UNL1       -0.1659
     26 C         143.8101  144.0197  162.4045 C.3     1  UNL1        0.1007
     27 C         143.2079  144.1939  163.7672 C.3     1  UNL1        0.0673
     28 C         141.7175  144.2528  163.9266 C.ar    1  UNL1        0.0607
     29 C         141.0537  143.5141  165.0508 C.ar    1  UNL1        0.0148
     30 C         139.5634  143.5730  165.2103 C.ar    1  UNL1        0.0028
     31 C         138.7368  144.3705  164.2454 C.ar    1  UNL1        0.0207
     32 C         139.4006  145.1091  163.1213 C.ar    1  UNL1        0.0984
     33 N         140.8910  145.0503  162.9619 N.ar    1  UNL1       -0.2481
@<TRIPOS>BOND
     1    11    12    2
     2    12    13   am
     3    13    15    1
     4    15    16    1
     5    16    17   ar
     6    17    18   ar
     7    18    19   ar
     8    19    22    1
     9    22    23    1
    10    22    24    1
    11    22    25    1
    12    19    20   ar
    13    20    21   ar
    14    12     1    1
    15     1     2    1
    16     2     3   ar
    17     3     4   ar
    18     4     5   ar
    19     5     6   ar
    20     6     7   ar
    21     7     8    1
    22     8     9    2
    23     8    10   am
    24    10    26    1
    25    26    27    1
    26    27    28    1
    27    28    29   ar
    28    29    30   ar
    29    30    31   ar
    30    31    32   ar
    31    32    33   ar
    32    21    16   ar
    33    10     1    1
    34    33    28   ar
    35     7     2   ar
    36    13    14    1
@<TRIPOS>MOLECULE
*****
 33 36 0 0 0
SMALL
GASTEIGER

@<TRIPOS>ATOM
      1 C         141.9159  140.1257  161.2197 C.3     1  UNL1        0.1751
      2 C         141.9309  139.3459  159.9384 C.ar    1  UNL1        0.0089
      3 C         142.7137  138.1419  159.5053 C.ar    1  UNL1       -0.0021
      4 C         142.5122  137.5701  158.1333 C.ar    1  UNL1       -0.0003
      5 C         141.5278  138.2021  157.1945 C.ar    1  UNL1        0.0001
      6 C         140.7449  139.4061  157.6276 C.ar    1  UNL1        0.0043
      7 C         140.9465  139.9780  158.9995 C.ar    1  UNL1        0.0516
      8 C         140.3231  141.1484  159.7006 C.2     1  UNL1        0.2493
      9 O         139.2832  142.0664  159.1297 O.2     1  UNL1       -0.2699
     10 N         140.9222  141.2397  161.0727 N.am    1  UNL1       -0.2657
     11 O         144.1862  140.2666  162.4749 O.2     1  UNL1       -0.2729
     12 C         142.7484  139.8413  162.4346 C.2     1  UNL1        0.2451
     13 N         142.1430  139.1316  163.6093 N.am    1  UNL1       -0.2988
     14 H         141.1992  138.8524  163.5829 H       1  UNL1        0.1498
     15 C         142.9755  138.8473  164.8243 C.3     1  UNL1        0.1164
     16 C         142.9514  139.7933  165.9880 C.ar    1  UNL1       -0.0026
     17 C         143.1428  141.2640  165.7632 C.ar    1  UNL1       -0.0027
     18 C         143.1187  142.2099  166.9270 C.ar    1  UNL1        0.0036
     19 C         142.9033  141.6854  168.3157 C.ar    1  UNL1        0.0714
     20 C         142.7119  140.2147  168.5406 C.ar    1  UNL1        0.0036
     21 C         142.7360  139.2686  167.3767 C.ar    1  UNL1       -0.0027
     22 C         142.8792  142.6314  169.4795 C.3     1  UNL1        0.4186
     23 F         142.8551  143.5775  170.6432 F       1  UNL1       -0.1659
     24 F         144.2527  142.1778  169.8766 F       1  UNL1       -0.1659
     25 F         141.5057  143.0850  169.0823 F       1  UNL1       -0.1659
     26 C         140.5866  142.2650  162.1149 C.3     1  UNL1        0.1007
     27 C         139.3210  142.1396  162.9102 C.3     1  UNL1        0.0673
     28 C         139.2591  141.2001  164.0780 C.ar    1  UNL1        0.0607
     29 C         139.5392  141.7050  165.4624 C.ar    1  UNL1        0.0148
     30 C         139.4772  140.7656  166.6302 C.ar    1  UNL1        0.0028
     31 C         139.1351  139.3212  166.4134 C.ar    1  UNL1        0.0207
     32 C         138.8550  138.8164  165.0290 C.ar    1  UNL1        0.0984
     33 N         138.9170  139.7558  163.8613 N.ar    1  UNL1       -0.2481
@<TRIPOS>BOND
     1    11    12    2
     2    12    13   am
     3    13    15    1
     4    15    16    1
     5    16    17   ar
     6    17    18   ar
     7    18    19   ar
     8    19    22    1
     9    22    23    1
    10    22    24    1
    11    22    25    1
    12    19    20   ar
    13    20    21   ar
    14    12     1    1
    15     1     2    1
    16     2     3   ar
    17     3     4   ar
    18     4     5   ar
    19     5     6   ar
    20     6     7   ar
    21     7     8    1
    22     8     9    2
    23     8    10   am
    24    10    26    1
    25    26    27    1
    26    27    28    1
    27    28    29   ar
    28    29    30   ar
    29    30    31   ar
    30    31    32   ar
    31    32    33   ar
    32    21    16   ar
    33    10     1    1
    34    33    28   ar
    35     7     2   ar
    36    13    14    1
@<TRIPOS>MOLECULE
*****
 33 36 0 0 0
SMALL
GASTEIGER

@<TRIPOS>ATOM
      1 C         138.9010  142.7002  160.4018 C.3     1  UNL1        0.1751
      2 C         139.4825  143.2778  159.1456 C.ar    1  UNL1        0.0089
      3 C         140.1979  144.5674  158.8713 C.ar    1  UNL1       -0.0021
      4 C         140.6755  144.8797  157.4841 C.ar    1  UNL1       -0.0003
      5 C         140.4377  143.9025  156.3712 C.ar    1  UNL1        0.0001
      6 C         139.7223  142.6130  156.6455 C.ar    1  UNL1        0.0043
      7 C         139.2447  142.3006  158.0327 C.ar    1  UNL1        0.0516
      8 C         138.5162  141.1191  158.6012 C.2     1  UNL1        0.2493
      9 O         138.0772  139.9039  157.8392 O.2     1  UNL1       -0.2699
     10 N         138.3037  141.3660  160.0654 N.am    1  UNL1       -0.2657
     11 O         137.6338  143.8272  162.3700 O.2     1  UNL1       -0.2729
     12 C         138.9143  143.3438  161.7567 C.2     1  UNL1        0.2451
     13 N         140.2084  143.5039  162.4983 N.am    1  UNL1       -0.2988
     14 H         141.0490  143.1866  162.0957 H       1  UNL1        0.1498
     15 C         140.2218  144.1475  163.8531 C.3     1  UNL1        0.1164
     16 C         140.8550  143.4390  165.0137 C.ar    1  UNL1       -0.0026
     17 C         140.0677  143.2028  166.2684 C.ar    1  UNL1       -0.0027
     18 C         140.7011  142.4942  167.4289 C.ar    1  UNL1        0.0036
     19 C         142.1217  142.0220  167.3348 C.ar    1  UNL1        0.0714
     20 C         142.9090  142.2582  166.0801 C.ar    1  UNL1        0.0036
     21 C         142.2756  142.9668  164.9195 C.ar    1  UNL1       -0.0027
     22 C         142.7550  141.3135  168.4954 C.3     1  UNL1        0.4186
     23 F         143.3882  140.6050  169.6560 F       1  UNL1       -0.1659
     24 F         142.0444  140.0495  168.1115 F       1  UNL1       -0.1659
     25 F         143.4655  142.5776  168.8793 F       1  UNL1       -0.1659
     26 C         137.6150  140.4411  161.0247 C.3     1  UNL1        0.1007
     27 C         138.3587  139.2769  161.6090 C.3     1  UNL1        0.0673
     28 C         138.4617  139.1235  163.0976 C.ar    1  UNL1        0.0607
     29 C         138.2059  140.3001  163.9923 C.ar    1  UNL1        0.0148
     30 C         138.3089  140.1466  165.4809 C.ar    1  UNL1        0.0028
     31 C         138.6676  138.8167  166.0747 C.ar    1  UNL1        0.0207
     32 C         138.9233  137.6402  165.1800 C.ar    1  UNL1        0.0984
     33 N         138.8203  137.7936  163.6915 N.ar    1  UNL1       -0.2481
@<TRIPOS>BOND
     1    11    12    2
     2    12    13   am
     3    13    15    1
     4    15    16    1
     5    16    17   ar
     6    17    18   ar
     7    18    19   ar
     8    19    22    1
     9    22    23    1
    10    22    24    1
    11    22    25    1
    12    19    20   ar
    13    20    21   ar
    14    12     1    1
    15     1     2    1
    16     2     3   ar
    17     3     4   ar
    18     4     5   ar
    19     5     6   ar
    20     6     7   ar
    21     7     8    1
    22     8     9    2
    23     8    10   am
    24    10    26    1
    25    26    27    1
    26    27    28    1
    27    28    29   ar
    28    29    30   ar
    29    30    31   ar
    30    31    32   ar
    31    32    33   ar
    32    21    16   ar
    33    10     1    1
    34    33    28   ar
    35     7     2   ar
    36    13    14    1
