@<TRIPOS>MOLECULE
*****
 34 37 0 0 0
SMALL
GASTEIGER

@<TRIPOS>ATOM
      1 C         139.2559  140.3336  163.2715 C.ar    1  UNL1        0.0685
      2 C         139.1353  139.0242  162.5498 C.ar    1  UNL1        0.0885
      3 C         139.6988  137.7759  163.1615 C.ar    1  UNL1        0.1263
      4 N         140.3830  137.8370  164.4950 N.ar    1  UNL1       -0.1633
      5 N         140.5036  139.1464  165.2168 N.ar    1  UNL1       -0.2270
      6 C         141.1196  139.5132  166.5343 C.ar    1  UNL1        0.1004
      7 C         140.9368  140.9881  166.7369 C.ar    1  UNL1        0.0208
      8 C         140.2078  141.5330  165.5445 C.ar    1  UNL1        0.0219
      9 C         139.9400  140.3947  164.6050 C.ar    1  UNL1        0.0961
     10 C         141.4014  141.7794  167.9235 C.ar    1  UNL1        0.0038
     11 C         140.4423  142.6755  168.6495 C.ar    1  UNL1        0.0002
     12 C         140.9070  143.4668  169.8361 C.ar    1  UNL1        0.0023
     13 C         142.3307  143.3620  170.2967 C.ar    1  UNL1        0.0296
     14 C         143.2898  142.4659  169.5706 C.ar    1  UNL1        0.1401
     15 F         144.7135  142.3610  170.0311 F       1  UNL1       -0.2042
     16 C         142.8251  141.6746  168.3840 C.ar    1  UNL1        0.0297
     17 C         138.4512  138.9631  161.2162 C.2     1  UNL1        0.2456
     18 N         136.9639  139.1367  161.1278 N.am    1  UNL1       -0.3252
     19 O         139.2542  138.7284  159.9713 O.2     1  UNL1       -0.2703
     20 H         136.4368  139.2907  161.9449 H       1  UNL1        0.1453
     21 H         136.5148  139.0966  160.2526 H       1  UNL1        0.1453
     22 N         138.6924  141.5818  162.6597 N.pl3   1  UNL1       -0.3327
     23 H         137.7258  141.7620  162.7108 H       1  UNL1        0.1468
     24 C         138.3673  143.7776  162.9766 C.3     1  UNL1        0.0029
     25 C         139.5294  144.0506  162.0683 C.3     1  UNL1        0.0282
     26 C         139.2143  145.4885  162.3563 C.3     1  UNL1        0.0029
     27 C         139.6015  142.5556  161.9701 C.3     1  UNL1        0.0702
     28 C         140.7422  142.2052  161.0614 C.3     1  UNL1        0.0208
     29 C         141.3752  143.4836  160.5979 C.3     1  UNL1        0.0160
     30 C         140.6256  144.6242  161.2202 C.3     1  UNL1        0.0404
     31 C         140.0814  145.9422  161.6855 C.3     1  UNL1        0.0156
     32 N         141.6080  145.4733  160.4694 N.3     1  UNL1       -0.3231
     33 H         142.2477  144.8733  159.9486 H       1  UNL1        0.1188
     34 H         142.1376  146.0439  161.1284 H       1  UNL1        0.1188
@<TRIPOS>BOND
     1    24    25    1
     2    25    26    1
     3    25    27    1
     4    27    22    1
     5    22     1    1
     6     1     2   ar
     7     2    17    1
     8    17    18   am
     9    17    19    2
    10     2     3   ar
    11     3     4   ar
    12     4     5   ar
    13     5     6   ar
    14     6     7   ar
    15     7    10    1
    16    10    11   ar
    17    11    12   ar
    18    12    13   ar
    19    13    14   ar
    20    14    15    1
    21    14    16   ar
    22     7     8   ar
    23     8     9   ar
    24    27    28    1
    25    28    29    1
    26    29    30    1
    27    30    31    1
    28    30    32    1
    29    30    25    1
    30     9     1   ar
    31     9     5   ar
    32    16    10   ar
    33    22    23    1
    34    18    20    1
    35    18    21    1
    36    32    33    1
    37    32    34    1
@<TRIPOS>MOLECULE
*****
 34 37 0 0 0
SMALL
GASTEIGER

@<TRIPOS>ATOM
      1 C         138.3874  140.4701  162.8611 C.ar    1  UNL1        0.0685
      2 C         138.2399  139.2506  162.0003 C.ar    1  UNL1        0.0885
      3 C         138.5770  137.8975  162.5527 C.ar    1  UNL1        0.1263
      4 N         139.0617  137.7637  163.9659 N.ar    1  UNL1       -0.1633
      5 N         139.2093  138.9832  164.8267 N.ar    1  UNL1       -0.2270
      6 C         139.6607  139.1612  166.2460 C.ar    1  UNL1        0.1004
      7 C         139.6025  140.6245  166.5708 C.ar    1  UNL1        0.0208
      8 C         139.1152  141.3508  165.3522 C.ar    1  UNL1        0.0219
      9 C         138.8722  140.3364  164.2743 C.ar    1  UNL1        0.0961
     10 C         139.9676  141.2514  167.8837 C.ar    1  UNL1        0.0038
     11 C         140.3323  142.7051  167.9451 C.ar    1  UNL1        0.0002
     12 C         140.6973  143.3320  169.2580 C.ar    1  UNL1        0.0023
     13 C         140.6977  142.5052  170.5096 C.ar    1  UNL1        0.0296
     14 C         140.3331  141.0515  170.4483 C.ar    1  UNL1        0.1401
     15 F         140.3334  140.2247  171.6998 F       1  UNL1       -0.2042
     16 C         139.9680  140.4246  169.1353 C.ar    1  UNL1        0.0297
     17 C         137.7551  139.3844  160.5870 C.2     1  UNL1        0.2456
     18 N         136.2835  139.3935  160.2967 N.am    1  UNL1       -0.3252
     19 O         138.7419  139.5090  159.4643 O.2     1  UNL1       -0.2703
     20 H         135.6359  139.3117  161.0336 H       1  UNL1        0.1453
     21 H         135.9653  139.4813  159.3692 H       1  UNL1        0.1453
     22 N         138.0503  141.8233  162.3086 N.pl3   1  UNL1       -0.3327
     23 H         137.1138  142.1261  162.2852 H       1  UNL1        0.1468
     24 C         138.0225  143.9969  162.8587 C.3     1  UNL1        0.0029
     25 C         139.2773  144.1850  162.0586 C.3     1  UNL1        0.0282
     26 C         139.1522  145.6153  162.4926 C.3     1  UNL1        0.0029
     27 C         139.1401  142.7153  161.7919 C.3     1  UNL1        0.0702
     28 C         140.2839  142.2940  160.9177 C.3     1  UNL1        0.0208
     29 C         141.1280  143.5034  160.6441 C.3     1  UNL1        0.0160
     30 C         140.5059  144.6720  161.3492 C.3     1  UNL1        0.0404
     31 C         140.1240  146.0006  161.9315 C.3     1  UNL1        0.0156
     32 N         141.6547  145.4369  160.7616 N.3     1  UNL1       -0.3231
     33 H         142.2387  144.8053  160.2135 H       1  UNL1        0.1188
     34 H         142.2096  145.8472  161.5126 H       1  UNL1        0.1188
@<TRIPOS>BOND
     1    24    25    1
     2    25    26    1
     3    25    27    1
     4    27    22    1
     5    22     1    1
     6     1     2   ar
     7     2    17    1
     8    17    18   am
     9    17    19    2
    10     2     3   ar
    11     3     4   ar
    12     4     5   ar
    13     5     6   ar
    14     6     7   ar
    15     7    10    1
    16    10    11   ar
    17    11    12   ar
    18    12    13   ar
    19    13    14   ar
    20    14    15    1
    21    14    16   ar
    22     7     8   ar
    23     8     9   ar
    24    27    28    1
    25    28    29    1
    26    29    30    1
    27    30    31    1
    28    30    32    1
    29    30    25    1
    30     9     1   ar
    31     9     5   ar
    32    16    10   ar
    33    22    23    1
    34    18    20    1
    35    18    21    1
    36    32    33    1
    37    32    34    1
@<TRIPOS>MOLECULE
*****
 34 37 0 0 0
SMALL
GASTEIGER

@<TRIPOS>ATOM
      1 C         141.2090  140.5753  168.3824 C.ar    1  UNL1        0.0685
      2 C         140.8605  140.4638  169.8371 C.ar    1  UNL1        0.0885
      3 C         139.5020  139.9783  170.2478 C.ar    1  UNL1        0.1263
      4 N         138.4919  139.6041  169.2038 N.ar    1  UNL1       -0.1633
      5 N         138.8404  139.7156  167.7491 N.ar    1  UNL1       -0.2270
      6 C         138.0574  139.4213  166.5041 C.ar    1  UNL1        0.1004
      7 C         138.9319  139.7250  165.3239 C.ar    1  UNL1        0.0208
      8 C         140.2555  140.2070  165.8395 C.ar    1  UNL1        0.0219
      9 C         140.1990  140.2012  167.3384 C.ar    1  UNL1        0.0961
     10 C         138.5500  139.5734  163.8813 C.ar    1  UNL1        0.0038
     11 C         138.4494  138.2065  163.2717 C.ar    1  UNL1        0.0002
     12 C         138.0675  138.0549  161.8291 C.ar    1  UNL1        0.0023
     13 C         137.7861  139.2702  160.9960 C.ar    1  UNL1        0.0296
     14 C         137.8867  140.6370  161.6055 C.ar    1  UNL1        0.1401
     15 F         137.6054  141.8523  160.7725 F       1  UNL1       -0.2042
     16 C         138.2686  140.7886  163.0482 C.ar    1  UNL1        0.0297
     17 C         141.8706  140.8380  170.8811 C.2     1  UNL1        0.2456
     18 N         143.0360  139.9342  171.1549 N.am    1  UNL1       -0.3252
     19 O         141.7152  142.1157  171.6511 O.2     1  UNL1       -0.2703
     20 H         143.1379  139.0955  170.6494 H       1  UNL1        0.1453
     21 H         143.6990  140.1797  171.8400 H       1  UNL1        0.1453
     22 N         142.5675  141.0609  167.9717 N.pl3   1  UNL1       -0.3327
     23 H         143.0295  141.7437  168.5097 H       1  UNL1        0.1468
     24 C         143.2748  142.4811  166.3874 C.3     1  UNL1        0.0029
     25 C         143.7519  141.3051  165.5878 C.3     1  UNL1        0.0282
     26 C         144.1820  142.3502  164.6016 C.3     1  UNL1        0.0029
     27 C         143.2220  140.5059  166.7413 C.3     1  UNL1        0.0702
     28 C         143.4615  139.0544  166.4485 C.3     1  UNL1        0.0208
     29 C         144.1394  138.9565  165.1140 C.3     1  UNL1        0.0160
     30 C         144.3189  140.3475  164.5821 C.3     1  UNL1        0.0404
     31 C         144.6305  141.5928  163.8061 C.3     1  UNL1        0.0156
     32 N         144.9510  139.6503  163.4141 N.3     1  UNL1       -0.3231
     33 H         144.9360  138.6425  163.5710 H       1  UNL1        0.1188
     34 H         145.9162  139.9642  163.3124 H       1  UNL1        0.1188
@<TRIPOS>BOND
     1    24    25    1
     2    25    26    1
     3    25    27    1
     4    27    22    1
     5    22     1    1
     6     1     2   ar
     7     2    17    1
     8    17    18   am
     9    17    19    2
    10     2     3   ar
    11     3     4   ar
    12     4     5   ar
    13     5     6   ar
    14     6     7   ar
    15     7    10    1
    16    10    11   ar
    17    11    12   ar
    18    12    13   ar
    19    13    14   ar
    20    14    15    1
    21    14    16   ar
    22     7     8   ar
    23     8     9   ar
    24    27    28    1
    25    28    29    1
    26    29    30    1
    27    30    31    1
    28    30    32    1
    29    30    25    1
    30     9     1   ar
    31     9     5   ar
    32    16    10   ar
    33    22    23    1
    34    18    20    1
    35    18    21    1
    36    32    33    1
    37    32    34    1
@<TRIPOS>MOLECULE
*****
 34 37 0 0 0
SMALL
GASTEIGER

@<TRIPOS>ATOM
      1 C         139.1711  141.4920  162.8543 C.ar    1  UNL1        0.0685
      2 C         138.5144  140.7339  161.7390 C.ar    1  UNL1        0.0885
      3 C         138.0166  139.3383  161.9720 C.ar    1  UNL1        0.1263
      4 N         138.1755  138.7007  163.3205 N.ar    1  UNL1       -0.1633
      5 N         138.8322  139.4588  164.4358 N.ar    1  UNL1       -0.2270
      6 C         139.1262  139.0937  165.8607 C.ar    1  UNL1        0.1004
      7 C         139.8057  140.2637  166.5082 C.ar    1  UNL1        0.0208
      8 C         139.9317  141.3519  165.4835 C.ar    1  UNL1        0.0219
      9 C         139.3300  140.8545  164.2027 C.ar    1  UNL1        0.0961
     10 C         140.2766  140.3333  167.9307 C.ar    1  UNL1        0.0038
     11 C         139.2990  140.1532  169.0540 C.ar    1  UNL1        0.0002
     12 C         139.7700  140.2228  170.4765 C.ar    1  UNL1        0.0023
     13 C         141.2185  140.4726  170.7756 C.ar    1  UNL1        0.0296
     14 C         142.1961  140.6527  169.6523 C.ar    1  UNL1        0.1401
     15 F         143.6446  140.9024  169.9513 F       1  UNL1       -0.2042
     16 C         141.7251  140.5831  168.2298 C.ar    1  UNL1        0.0297
     17 C         138.3556  141.3716  160.3905 C.2     1  UNL1        0.2456
     18 N         138.4225  140.5302  159.1505 N.am    1  UNL1       -0.3252
     19 O         138.1298  142.8504  160.2821 O.2     1  UNL1       -0.2703
     20 H         138.5707  139.5595  159.2217 H       1  UNL1        0.1453
     21 H         138.3182  140.9486  158.2655 H       1  UNL1        0.1453
     22 N         139.6689  142.8877  162.6212 N.pl3   1  UNL1       -0.3327
     23 H         139.0386  143.6438  162.6347 H       1  UNL1        0.1468
     24 C         140.7184  144.4887  163.7887 C.3     1  UNL1        0.0029
     25 C         141.9824  144.1553  163.0531 C.3     1  UNL1        0.0282
     26 C         142.5733  145.2490  163.8925 C.3     1  UNL1        0.0029
     27 C         141.1272  143.1313  162.3675 C.3     1  UNL1        0.0702
     28 C         141.9862  142.3936  161.3837 C.3     1  UNL1        0.0208
     29 C         143.3723  142.9617  161.4612 C.3     1  UNL1        0.0160
     30 C         143.3699  144.0504  162.4930 C.3     1  UNL1        0.0404
     31 C         143.6708  145.1661  163.4495 C.3     1  UNL1        0.0156
     32 N         144.8203  144.1789  162.1328 N.3     1  UNL1       -0.3231
     33 H         145.0529  143.4974  161.4103 H       1  UNL1        0.1188
     34 H         145.3925  144.0066  162.9595 H       1  UNL1        0.1188
@<TRIPOS>BOND
     1    24    25    1
     2    25    26    1
     3    25    27    1
     4    27    22    1
     5    22     1    1
     6     1     2   ar
     7     2    17    1
     8    17    18   am
     9    17    19    2
    10     2     3   ar
    11     3     4   ar
    12     4     5   ar
    13     5     6   ar
    14     6     7   ar
    15     7    10    1
    16    10    11   ar
    17    11    12   ar
    18    12    13   ar
    19    13    14   ar
    20    14    15    1
    21    14    16   ar
    22     7     8   ar
    23     8     9   ar
    24    27    28    1
    25    28    29    1
    26    29    30    1
    27    30    31    1
    28    30    32    1
    29    30    25    1
    30     9     1   ar
    31     9     5   ar
    32    16    10   ar
    33    22    23    1
    34    18    20    1
    35    18    21    1
    36    32    33    1
    37    32    34    1
@<TRIPOS>MOLECULE
*****
 34 37 0 0 0
SMALL
GASTEIGER

@<TRIPOS>ATOM
      1 C         141.7657  140.6442  167.1721 C.ar    1  UNL1        0.0685
      2 C         141.3844  140.6667  168.6226 C.ar    1  UNL1        0.0885
      3 C         140.5561  141.7943  169.1630 C.ar    1  UNL1        0.1263
      4 N         140.1089  142.8997  168.2528 N.ar    1  UNL1       -0.1633
      5 N         140.4902  142.8772  166.8023 N.ar    1  UNL1       -0.2270
      6 C         140.1980  143.8203  165.6731 C.ar    1  UNL1        0.1004
      7 C         140.8459  143.2755  164.4348 C.ar    1  UNL1        0.0208
      8 C         141.5384  141.9956  164.7987 C.ar    1  UNL1        0.0219
      9 C         141.3186  141.7495  166.2619 C.ar    1  UNL1        0.0961
     10 C         140.8079  143.9007  163.0718 C.ar    1  UNL1        0.0038
     11 C         141.5570  143.2694  161.9359 C.ar    1  UNL1        0.0002
     12 C         141.5190  143.8946  160.5729 C.ar    1  UNL1        0.0023
     13 C         140.7318  145.1512  160.3458 C.ar    1  UNL1        0.0296
     14 C         139.9827  145.7825  161.4817 C.ar    1  UNL1        0.1401
     15 F         139.1956  147.0389  161.2547 F       1  UNL1       -0.2042
     16 C         140.0208  145.1572  162.8447 C.ar    1  UNL1        0.0297
     17 C         141.8316  139.5613  169.5328 C.2     1  UNL1        0.2456
     18 N         140.9731  139.1511  170.6924 N.am    1  UNL1       -0.3252
     19 O         143.1370  138.8661  169.2833 O.2     1  UNL1       -0.2703
     20 H         140.1162  139.6074  170.8562 H       1  UNL1        0.1453
     21 H         141.2665  138.4257  171.2898 H       1  UNL1        0.1453
     22 N         142.5941  139.5165  166.6317 N.pl3   1  UNL1       -0.3327
     23 H         143.3990  139.2212  167.1155 H       1  UNL1        0.1468
     24 C         144.0382  139.5051  164.9165 C.3     1  UNL1        0.0029
     25 C         143.0321  138.7356  164.1130 C.3     1  UNL1        0.0282
     26 C         144.0786  138.7935  163.0400 C.3     1  UNL1        0.0029
     27 C         142.1960  138.8386  165.3541 C.3     1  UNL1        0.0702
     28 C         140.8919  138.1449  165.0933 C.3     1  UNL1        0.0208
     29 C         140.9221  137.6131  163.6911 C.3     1  UNL1        0.0160
     30 C         142.2448  137.9782  163.0853 C.3     1  UNL1        0.0404
     31 C         143.4559  138.1944  162.2271 C.3     1  UNL1        0.0156
     32 N         141.7106  137.2659  161.8781 N.3     1  UNL1       -0.3231
     33 H         140.7729  136.9171  162.0763 H       1  UNL1        0.1188
     34 H         142.3226  136.4834  161.6465 H       1  UNL1        0.1188
@<TRIPOS>BOND
     1    24    25    1
     2    25    26    1
     3    25    27    1
     4    27    22    1
     5    22     1    1
     6     1     2   ar
     7     2    17    1
     8    17    18   am
     9    17    19    2
    10     2     3   ar
    11     3     4   ar
    12     4     5   ar
    13     5     6   ar
    14     6     7   ar
    15     7    10    1
    16    10    11   ar
    17    11    12   ar
    18    12    13   ar
    19    13    14   ar
    20    14    15    1
    21    14    16   ar
    22     7     8   ar
    23     8     9   ar
    24    27    28    1
    25    28    29    1
    26    29    30    1
    27    30    31    1
    28    30    32    1
    29    30    25    1
    30     9     1   ar
    31     9     5   ar
    32    16    10   ar
    33    22    23    1
    34    18    20    1
    35    18    21    1
    36    32    33    1
    37    32    34    1
@<TRIPOS>MOLECULE
*****
 34 37 0 0 0
SMALL
GASTEIGER

@<TRIPOS>ATOM
      1 C         141.1302  140.5303  167.5872 C.ar    1  UNL1        0.0685
      2 C         141.3857  140.0822  168.9957 C.ar    1  UNL1        0.0885
      3 C         142.4844  139.1025  169.2834 C.ar    1  UNL1        0.1263
      4 N         143.3278  138.5708  168.1626 N.ar    1  UNL1       -0.1633
      5 N         143.0723  139.0189  166.7541 N.ar    1  UNL1       -0.2270
      6 C         143.7347  138.6703  165.4542 C.ar    1  UNL1        0.1004
      7 C         143.0452  139.4346  164.3631 C.ar    1  UNL1        0.0208
      8 C         141.9568  140.2556  164.9887 C.ar    1  UNL1        0.0219
      9 C         141.9735  139.9987  166.4664 C.ar    1  UNL1        0.0961
     10 C         143.3846  139.3864  162.9028 C.ar    1  UNL1        0.0038
     11 C         143.3373  138.0816  162.1645 C.ar    1  UNL1        0.0002
     12 C         143.6768  138.0335  160.7042 C.ar    1  UNL1        0.0023
     13 C         144.0635  139.2901  159.9822 C.ar    1  UNL1        0.0296
     14 C         144.1108  140.5950  160.7205 C.ar    1  UNL1        0.1401
     15 F         144.4975  141.8516  159.9986 F       1  UNL1       -0.2042
     16 C         143.7713  140.6431  162.1808 C.ar    1  UNL1        0.0297
     17 C         140.5423  140.6139  170.1165 C.2     1  UNL1        0.2456
     18 N         139.9597  139.6723  171.1285 N.am    1  UNL1       -0.3252
     19 O         140.2815  142.0869  170.2253 O.2     1  UNL1       -0.2703
     20 H         140.1309  138.7054  171.0571 H       1  UNL1        0.1453
     21 H         139.4062  140.0212  171.8641 H       1  UNL1        0.1453
     22 N         140.0314  141.5101  167.2995 N.pl3   1  UNL1       -0.3327
     23 H         139.8941  142.2838  167.8925 H       1  UNL1        0.1468
     24 C         139.6186  143.2547  165.9528 C.3     1  UNL1        0.0029
     25 C         138.7608  142.3610  165.1071 C.3     1  UNL1        0.0282
     26 C         138.5590  143.5978  164.2829 C.3     1  UNL1        0.0029
     27 C         139.1419  141.3109  166.1081 C.3     1  UNL1        0.0702
     28 C         138.4775  140.0268  165.7088 C.3     1  UNL1        0.0208
     29 C         137.6856  140.2832  164.4609 C.3     1  UNL1        0.0160
     30 C         137.8608  141.7258  164.0890 C.3     1  UNL1        0.0404
     31 C         137.8471  143.0955  163.4776 C.3     1  UNL1        0.0156
     32 N         136.9579  141.3770  162.9431 N.3     1  UNL1       -0.3231
     33 H         136.7012  140.3915  163.0003 H       1  UNL1        0.1188
     34 H         137.4427  141.5515  162.0629 H       1  UNL1        0.1188
@<TRIPOS>BOND
     1    24    25    1
     2    25    26    1
     3    25    27    1
     4    27    22    1
     5    22     1    1
     6     1     2   ar
     7     2    17    1
     8    17    18   am
     9    17    19    2
    10     2     3   ar
    11     3     4   ar
    12     4     5   ar
    13     5     6   ar
    14     6     7   ar
    15     7    10    1
    16    10    11   ar
    17    11    12   ar
    18    12    13   ar
    19    13    14   ar
    20    14    15    1
    21    14    16   ar
    22     7     8   ar
    23     8     9   ar
    24    27    28    1
    25    28    29    1
    26    29    30    1
    27    30    31    1
    28    30    32    1
    29    30    25    1
    30     9     1   ar
    31     9     5   ar
    32    16    10   ar
    33    22    23    1
    34    18    20    1
    35    18    21    1
    36    32    33    1
    37    32    34    1
@<TRIPOS>MOLECULE
*****
 34 37 0 0 0
SMALL
GASTEIGER

@<TRIPOS>ATOM
      1 C         140.6465  139.8021  163.0952 C.ar    1  UNL1        0.0685
      2 C         140.0144  138.7748  162.2035 C.ar    1  UNL1        0.0885
      3 C         139.0193  137.8037  162.7661 C.ar    1  UNL1        0.1263
      4 N         138.6564  137.8597  164.2206 N.ar    1  UNL1       -0.1633
      5 N         139.2885  138.8870  165.1122 N.ar    1  UNL1       -0.2270
      6 C         139.1288  139.1817  166.5743 C.ar    1  UNL1        0.1004
      7 C         140.0252  140.3350  166.9152 C.ar    1  UNL1        0.0208
      8 C         140.7389  140.7531  165.6639 C.ar    1  UNL1        0.0219
      9 C         140.2836  139.8582  164.5495 C.ar    1  UNL1        0.0961
     10 C         140.1806  140.9605  168.2697 C.ar    1  UNL1        0.0038
     11 C         140.2031  140.0974  169.4963 C.ar    1  UNL1        0.0002
     12 C         140.3586  140.7229  170.8507 C.ar    1  UNL1        0.0023
     13 C         140.4915  142.2115  170.9787 C.ar    1  UNL1        0.0296
     14 C         140.4691  143.0747  169.7521 C.ar    1  UNL1        0.1401
     15 F         140.6020  144.5632  169.8799 F       1  UNL1       -0.2042
     16 C         140.3136  142.4491  168.3976 C.ar    1  UNL1        0.0297
     17 C         140.3774  138.7188  160.7491 C.2     1  UNL1        0.2456
     18 N         139.3004  138.7522  159.7056 N.am    1  UNL1       -0.3252
     19 O         141.8172  138.6294  160.3384 O.2     1  UNL1       -0.2703
     20 H         138.3553  138.8108  159.9752 H       1  UNL1        0.1453
     21 H         139.5386  138.7154  158.7510 H       1  UNL1        0.1453
     22 N         141.6416  140.7733  162.5325 N.pl3   1  UNL1       -0.3327
     23 H         142.4783  140.4440  162.1317 H       1  UNL1        0.1468
     24 C         143.1852  142.1404  163.4133 C.3     1  UNL1        0.0029
     25 C         142.2761  143.2999  163.1317 C.3     1  UNL1        0.0282
     26 C         143.3806  144.1111  163.7417 C.3     1  UNL1        0.0029
     27 C         141.3618  142.2463  162.5806 C.3     1  UNL1        0.0702
     28 C         140.1185  142.9241  162.0860 C.3     1  UNL1        0.0208
     29 C         140.2644  144.3966  162.3314 C.3     1  UNL1        0.0160
     30 C         141.5980  144.6288  162.9777 C.3     1  UNL1        0.0404
     31 C         142.8442  145.1622  163.6199 C.3     1  UNL1        0.0156
     32 N         141.1803  146.0694  162.9580 N.3     1  UNL1       -0.3231
     33 H         140.2541  146.1491  162.5382 H       1  UNL1        0.1188
     34 H         141.8496  146.6100  162.4101 H       1  UNL1        0.1188
@<TRIPOS>BOND
     1    24    25    1
     2    25    26    1
     3    25    27    1
     4    27    22    1
     5    22     1    1
     6     1     2   ar
     7     2    17    1
     8    17    18   am
     9    17    19    2
    10     2     3   ar
    11     3     4   ar
    12     4     5   ar
    13     5     6   ar
    14     6     7   ar
    15     7    10    1
    16    10    11   ar
    17    11    12   ar
    18    12    13   ar
    19    13    14   ar
    20    14    15    1
    21    14    16   ar
    22     7     8   ar
    23     8     9   ar
    24    27    28    1
    25    28    29    1
    26    29    30    1
    27    30    31    1
    28    30    32    1
    29    30    25    1
    30     9     1   ar
    31     9     5   ar
    32    16    10   ar
    33    22    23    1
    34    18    20    1
    35    18    21    1
    36    32    33    1
    37    32    34    1
@<TRIPOS>MOLECULE
*****
 34 37 0 0 0
SMALL
GASTEIGER

@<TRIPOS>ATOM
      1 C         140.9925  143.9452  160.7403 C.ar    1  UNL1        0.0685
      2 C         140.4961  144.2489  159.3579 C.ar    1  UNL1        0.0885
      3 C         139.2157  143.6389  158.8699 C.ar    1  UNL1        0.1263
      4 N         138.4315  142.7251  159.7644 N.ar    1  UNL1       -0.1633
      5 N         138.9279  142.4213  161.1469 N.ar    1  UNL1       -0.2270
      6 C         138.3743  141.5642  162.2463 C.ar    1  UNL1        0.1004
      7 C         139.3126  141.6446  163.4138 C.ar    1  UNL1        0.0208
      8 C         140.4462  142.5513  163.0359 C.ar    1  UNL1        0.0219
      9 C         140.2085  143.0314  161.6348 C.ar    1  UNL1        0.0961
     10 C         139.1465  140.9417  164.7285 C.ar    1  UNL1        0.0038
     11 C         138.2400  139.7512  164.8332 C.ar    1  UNL1        0.0002
     12 C         138.0739  139.0483  166.1479 C.ar    1  UNL1        0.0023
     13 C         138.8144  139.5358  167.3578 C.ar    1  UNL1        0.0296
     14 C         139.7209  140.7263  167.2532 C.ar    1  UNL1        0.1401
     15 F         140.4614  141.2138  168.4630 F       1  UNL1       -0.2042
     16 C         139.8870  141.4292  165.9384 C.ar    1  UNL1        0.0297
     17 C         141.2803  145.1628  158.4634 C.2     1  UNL1        0.2456
     18 N         140.5840  146.2645  157.7209 N.am    1  UNL1       -0.3252
     19 O         142.7606  144.9749  158.3114 O.2     1  UNL1       -0.2703
     20 H         139.6123  146.3878  157.8206 H       1  UNL1        0.1453
     21 H         141.0986  146.8643  157.1338 H       1  UNL1        0.1453
     22 N         142.2731  144.5553  161.2283 N.pl3   1  UNL1       -0.3327
     23 H         142.4135  145.5271  161.1580 H       1  UNL1        0.1468
     24 C         142.8849  144.8955  163.3585 C.3     1  UNL1        0.0029
     25 C         143.8689  143.7714  163.2243 C.3     1  UNL1        0.0282
     26 C         144.1924  144.0933  164.6532 C.3     1  UNL1        0.0029
     27 C         143.3397  143.6845  161.8235 C.3     1  UNL1        0.0702
     28 C         144.0643  142.5740  161.1223 C.3     1  UNL1        0.0208
     29 C         145.0413  141.9745  162.0898 C.3     1  UNL1        0.0160
     30 C         144.9206  142.7146  163.3889 C.3     1  UNL1        0.0404
     31 C         145.0242  143.2574  164.7834 C.3     1  UNL1        0.0156
     32 N         145.9939  141.7713  163.8450 N.3     1  UNL1       -0.3231
     33 H         146.2427  141.1439  163.0802 H       1  UNL1        0.1188
     34 H         145.6527  141.2247  164.6357 H       1  UNL1        0.1188
@<TRIPOS>BOND
     1    24    25    1
     2    25    26    1
     3    25    27    1
     4    27    22    1
     5    22     1    1
     6     1     2   ar
     7     2    17    1
     8    17    18   am
     9    17    19    2
    10     2     3   ar
    11     3     4   ar
    12     4     5   ar
    13     5     6   ar
    14     6     7   ar
    15     7    10    1
    16    10    11   ar
    17    11    12   ar
    18    12    13   ar
    19    13    14   ar
    20    14    15    1
    21    14    16   ar
    22     7     8   ar
    23     8     9   ar
    24    27    28    1
    25    28    29    1
    26    29    30    1
    27    30    31    1
    28    30    32    1
    29    30    25    1
    30     9     1   ar
    31     9     5   ar
    32    16    10   ar
    33    22    23    1
    34    18    20    1
    35    18    21    1
    36    32    33    1
    37    32    34    1
@<TRIPOS>MOLECULE
*****
 34 37 0 0 0
SMALL
GASTEIGER

@<TRIPOS>ATOM
      1 C         142.4172  140.5799  163.0240 C.ar    1  UNL1        0.0685
      2 C         143.5511  139.8258  162.3951 C.ar    1  UNL1        0.0885
      3 C         144.5543  139.1216  163.2595 C.ar    1  UNL1        0.1263
      4 N         144.4237  139.1713  164.7531 N.ar    1  UNL1       -0.1633
      5 N         143.2898  139.9254  165.3820 N.ar    1  UNL1       -0.2270
      6 C         142.9055  140.1491  166.8145 C.ar    1  UNL1        0.1004
      7 C         141.6647  140.9917  166.8353 C.ar    1  UNL1        0.0208
      8 C         141.2821  141.2887  165.4157 C.ar    1  UNL1        0.0219
      9 C         142.2865  140.6297  164.5174 C.ar    1  UNL1        0.0961
     10 C         140.9346  141.4558  168.0607 C.ar    1  UNL1        0.0038
     11 C         140.1086  140.4868  168.8537 C.ar    1  UNL1        0.0002
     12 C         139.3785  140.9511  170.0791 C.ar    1  UNL1        0.0023
     13 C         139.4743  142.3842  170.5115 C.ar    1  UNL1        0.0296
     14 C         140.3003  143.3532  169.7185 C.ar    1  UNL1        0.1401
     15 F         140.3961  144.7863  170.1507 F       1  UNL1       -0.2042
     16 C         141.0304  142.8890  168.4931 C.ar    1  UNL1        0.0297
     17 C         143.6818  139.7761  160.9015 C.2     1  UNL1        0.2456
     18 N         143.7750  138.4533  160.2005 N.am    1  UNL1       -0.3252
     19 O         143.7191  141.0491  160.1091 O.2     1  UNL1       -0.2703
     20 H         143.7505  137.6177  160.7207 H       1  UNL1        0.1453
     21 H         143.8608  138.4206  159.2203 H       1  UNL1        0.1453
     22 N         141.4139  141.2842  162.1594 N.pl3   1  UNL1       -0.3327
     23 H         140.8417  140.7668  161.5478 H       1  UNL1        0.1468
     24 C         139.3723  142.1822  162.3897 C.3     1  UNL1        0.0029
     25 C         140.0021  143.5435  162.3785 C.3     1  UNL1        0.0282
     26 C         138.5901  144.0253  162.5327 C.3     1  UNL1        0.0029
     27 C         141.2826  142.7770  162.2267 C.3     1  UNL1        0.0702
     28 C         142.4086  143.7654  162.1539 C.3     1  UNL1        0.0208
     29 C         141.8240  145.1426  162.2608 C.3     1  UNL1        0.0160
     30 C         140.3368  145.0054  162.3996 C.3     1  UNL1        0.0404
     31 C         138.8547  145.1816  162.5494 C.3     1  UNL1        0.0156
     32 N         140.3616  146.5043  162.4520 N.3     1  UNL1       -0.3231
     33 H         141.3243  146.8315  162.3708 H       1  UNL1        0.1188
     34 H         139.9688  146.8201  163.3388 H       1  UNL1        0.1188
@<TRIPOS>BOND
     1    24    25    1
     2    25    26    1
     3    25    27    1
     4    27    22    1
     5    22     1    1
     6     1     2   ar
     7     2    17    1
     8    17    18   am
     9    17    19    2
    10     2     3   ar
    11     3     4   ar
    12     4     5   ar
    13     5     6   ar
    14     6     7   ar
    15     7    10    1
    16    10    11   ar
    17    11    12   ar
    18    12    13   ar
    19    13    14   ar
    20    14    15    1
    21    14    16   ar
    22     7     8   ar
    23     8     9   ar
    24    27    28    1
    25    28    29    1
    26    29    30    1
    27    30    31    1
    28    30    32    1
    29    30    25    1
    30     9     1   ar
    31     9     5   ar
    32    16    10   ar
    33    22    23    1
    34    18    20    1
    35    18    21    1
    36    32    33    1
    37    32    34    1
