@<TRIPOS>MOLECULE
*****
 32 33 0 0 0
SMALL
GASTEIGER

@<TRIPOS>ATOM
      1 C         139.1264  139.6627  165.6086 C.3     1  UNL1        0.0813
      2 C         138.4313  138.4229  166.0878 C.2     1  UNL1        0.2439
      3 O         138.6335  137.1233  165.3667 O.2     1  UNL1       -0.2731
      4 N         137.5338  138.4827  167.2882 N.am    1  UNL1       -0.1970
      5 O         136.8387  137.2429  167.7675 O.3     1  UNL1       -0.2952
      6 H         137.4010  139.3357  167.7616 H       1  UNL1        0.1822
      7 H         137.0760  136.4972  167.1944 H       1  UNL1        0.2414
      8 C         140.6243  139.7380  165.6287 C.3     1  UNL1        0.0433
      9 C         141.3517  139.8595  166.9349 C.3     1  UNL1        0.1380
     10 C         140.8119  140.7506  168.0140 C.ar    1  UNL1        0.0047
     11 C         141.0584  142.2292  167.9589 C.ar    1  UNL1        0.0004
     12 C         140.5184  143.1203  169.0380 C.ar    1  UNL1        0.0294
     13 C         139.7321  142.5328  170.1722 C.ar    1  UNL1        0.1401
     14 F         139.1922  143.4239  171.2512 F       1  UNL1       -0.2042
     15 C         139.4856  141.0543  170.2273 C.ar    1  UNL1        0.0294
     16 C         140.0254  140.1631  169.1483 C.ar    1  UNL1        0.0004
     17 C         143.3088  138.4236  166.0087 C.3     1  UNL1        0.1745
     18 O         142.6190  139.0898  167.1620 O.3     1  UNL1       -0.3492
     19 C         138.3236  140.8272  165.1092 C.3     1  UNL1        0.0093
     20 C         138.9804  142.1613  164.9113 C.3     1  UNL1        0.0019
     21 C         138.1670  143.3381  164.4604 C.3     1  UNL1        0.0171
     22 C         138.3628  143.9021  163.0844 C.3     1  UNL1        0.0688
     23 N         137.5613  143.3685  161.9341 N.3     1  UNL1       -0.2937
     24 H         137.2171  144.1764  161.4152 H       1  UNL1        0.1236
     25 C         138.2024  142.4527  160.9341 C.3     1  UNL1        0.0956
     26 C         138.7318  141.1186  161.3703 C.ar    1  UNL1       -0.0062
     27 C         137.7871  139.9778  161.6069 C.ar    1  UNL1       -0.0006
     28 C         138.3165  138.6438  162.0430 C.ar    1  UNL1        0.0294
     29 C         139.7905  138.4507  162.2426 C.ar    1  UNL1        0.1401
     30 F         140.3199  137.1166  162.6788 F       1  UNL1       -0.2042
     31 C         140.7352  139.5915  162.0060 C.ar    1  UNL1        0.0294
     32 C         140.2058  140.9255  161.5699 C.ar    1  UNL1       -0.0006
@<TRIPOS>BOND
     1    17    18    1
     2    18     9    1
     3     9     8    1
     4     1     8    1
     5     1    19    1
     6    19    20    1
     7    20    21    1
     8    21    22    1
     9    22    23    1
    10    23    25    1
    11    25    26    1
    12    26    27   ar
    13    27    28   ar
    14    28    29   ar
    15    29    30    1
    16    29    31   ar
    17    31    32   ar
    18     1     2    1
    19     2     3    2
    20     2     4   am
    21     4     5    1
    22     9    10    1
    23    10    11   ar
    24    11    12   ar
    25    12    13   ar
    26    13    14    1
    27    13    15   ar
    28    15    16   ar
    29    32    26   ar
    30    16    10   ar
    31    23    24    1
    32     4     6    1
    33     5     7    1
@<TRIPOS>MOLECULE
*****
 32 33 0 0 0
SMALL
GASTEIGER

@<TRIPOS>ATOM
      1 C         140.5475  140.3187  168.7415 C.3     1  UNL1        0.0813
      2 C         140.2861  140.6279  170.1858 C.2     1  UNL1        0.2439
      3 O         139.6595  139.5932  171.0728 O.2     1  UNL1       -0.2731
      4 N         140.6514  141.9717  170.7432 N.am    1  UNL1       -0.1970
      5 O         140.3899  142.2809  172.1875 O.3     1  UNL1       -0.2952
      6 H         141.0626  142.6508  170.1610 H       1  UNL1        0.1822
      7 H         139.9845  141.5102  172.6148 H       1  UNL1        0.2414
      8 C         141.9341  140.4518  168.1850 C.3     1  UNL1        0.0433
      9 C         142.5046  141.8116  167.9101 C.3     1  UNL1        0.1380
     10 C         142.7421  142.2535  166.4965 C.ar    1  UNL1        0.0047
     11 C         141.7011  142.0005  165.4466 C.ar    1  UNL1        0.0004
     12 C         141.9386  142.4424  164.0330 C.ar    1  UNL1        0.0294
     13 C         143.2172  143.1373  163.6692 C.ar    1  UNL1        0.1401
     14 F         143.4547  143.5791  162.2556 F       1  UNL1       -0.2042
     15 C         144.2583  143.3903  164.7191 C.ar    1  UNL1        0.0294
     16 C         144.0208  142.9484  166.1327 C.ar    1  UNL1        0.0004
     17 C         144.0501  142.4686  169.8925 C.3     1  UNL1        0.1745
     18 O         142.8376  142.7295  169.0488 O.3     1  UNL1       -0.3492
     19 C         139.4224  139.8765  167.8536 C.3     1  UNL1        0.0093
     20 C         139.4743  140.1572  166.3809 C.3     1  UNL1        0.0019
     21 C         138.3641  139.6875  165.4883 C.3     1  UNL1        0.0171
     22 C         138.6104  138.5847  164.5020 C.3     1  UNL1        0.0688
     23 N         139.6189  137.5169  164.8071 N.3     1  UNL1       -0.2937
     24 H         139.1045  136.6396  164.8848 H       1  UNL1        0.1236
     25 C         140.7577  137.2690  163.8629 C.3     1  UNL1        0.0956
     26 C         142.0223  138.0662  163.9873 C.ar    1  UNL1       -0.0062
     27 C         142.6311  138.7012  162.7724 C.ar    1  UNL1       -0.0006
     28 C         143.8956  139.4983  162.8968 C.ar    1  UNL1        0.0294
     29 C         144.5514  139.6603  164.2361 C.ar    1  UNL1        0.1401
     30 F         145.8160  140.4575  164.3605 F       1  UNL1       -0.2042
     31 C         143.9426  139.0253  165.4510 C.ar    1  UNL1        0.0294
     32 C         142.6780  138.2282  165.3266 C.ar    1  UNL1       -0.0006
@<TRIPOS>BOND
     1    17    18    1
     2    18     9    1
     3     9     8    1
     4     1     8    1
     5     1    19    1
     6    19    20    1
     7    20    21    1
     8    21    22    1
     9    22    23    1
    10    23    25    1
    11    25    26    1
    12    26    27   ar
    13    27    28   ar
    14    28    29   ar
    15    29    30    1
    16    29    31   ar
    17    31    32   ar
    18     1     2    1
    19     2     3    2
    20     2     4   am
    21     4     5    1
    22     9    10    1
    23    10    11   ar
    24    11    12   ar
    25    12    13   ar
    26    13    14    1
    27    13    15   ar
    28    15    16   ar
    29    32    26   ar
    30    16    10   ar
    31    23    24    1
    32     4     6    1
    33     5     7    1
@<TRIPOS>MOLECULE
*****
 32 33 0 0 0
SMALL
GASTEIGER

@<TRIPOS>ATOM
      1 C         138.7058  143.7497  164.5367 C.3     1  UNL1        0.0813
      2 C         138.9180  144.7629  163.4512 C.2     1  UNL1        0.2439
      3 O         137.8792  144.9486  162.3852 O.2     1  UNL1       -0.2731
      4 N         140.1689  145.5903  163.4316 N.am    1  UNL1       -0.1970
      5 O         140.3811  146.6035  162.3460 O.3     1  UNL1       -0.2952
      6 H         140.8507  145.4684  164.1312 H       1  UNL1        0.1822
      7 H         139.6208  146.5960  161.7437 H       1  UNL1        0.2414
      8 C         139.5942  143.7481  165.7453 C.3     1  UNL1        0.0433
      9 C         140.8486  142.9256  165.7529 C.3     1  UNL1        0.1380
     10 C         141.0814  141.9229  166.8439 C.ar    1  UNL1        0.0047
     11 C         142.4056  141.8729  167.5467 C.ar    1  UNL1        0.0004
     12 C         142.6382  140.8701  168.6378 C.ar    1  UNL1        0.0294
     13 C         141.5467  139.9173  169.0260 C.ar    1  UNL1        0.1401
     14 F         141.7794  138.9146  170.1170 F       1  UNL1       -0.2042
     15 C         140.2225  139.9673  168.3232 C.ar    1  UNL1        0.0294
     16 C         139.9898  140.9700  167.2322 C.ar    1  UNL1        0.0004
     17 C         141.9201  142.1457  163.5183 C.3     1  UNL1        0.1745
     18 O         141.8703  143.1059  164.6696 O.3     1  UNL1       -0.3492
     19 C         137.6052  142.7380  164.4137 C.3     1  UNL1        0.0093
     20 C         137.9369  141.2919  164.1930 C.3     1  UNL1        0.0019
     21 C         137.8563  140.7058  162.8146 C.3     1  UNL1        0.0171
     22 C         138.4038  139.3348  162.5494 C.3     1  UNL1        0.0688
     23 N         138.7180  138.4182  163.6946 N.3     1  UNL1       -0.2937
     24 H         137.8969  137.8294  163.8342 H       1  UNL1        0.1236
     25 C         139.9014  137.4997  163.6172 C.3     1  UNL1        0.0956
     26 C         141.2827  138.0346  163.8541 C.ar    1  UNL1       -0.0062
     27 C         142.2073  138.2633  162.6953 C.ar    1  UNL1       -0.0006
     28 C         143.5885  138.7981  162.9322 C.ar    1  UNL1        0.0294
     29 C         144.0451  139.1042  164.3279 C.ar    1  UNL1        0.1401
     30 F         145.4264  139.6391  164.5647 F       1  UNL1       -0.2042
     31 C         143.1205  138.8755  165.4866 C.ar    1  UNL1        0.0294
     32 C         141.7393  138.3407  165.2497 C.ar    1  UNL1       -0.0006
@<TRIPOS>BOND
     1    17    18    1
     2    18     9    1
     3     9     8    1
     4     1     8    1
     5     1    19    1
     6    19    20    1
     7    20    21    1
     8    21    22    1
     9    22    23    1
    10    23    25    1
    11    25    26    1
    12    26    27   ar
    13    27    28   ar
    14    28    29   ar
    15    29    30    1
    16    29    31   ar
    17    31    32   ar
    18     1     2    1
    19     2     3    2
    20     2     4   am
    21     4     5    1
    22     9    10    1
    23    10    11   ar
    24    11    12   ar
    25    12    13   ar
    26    13    14    1
    27    13    15   ar
    28    15    16   ar
    29    32    26   ar
    30    16    10   ar
    31    23    24    1
    32     4     6    1
    33     5     7    1
@<TRIPOS>MOLECULE
*****
 32 33 0 0 0
SMALL
GASTEIGER

@<TRIPOS>ATOM
      1 C         140.2155  144.7852  163.9509 C.3     1  UNL1        0.0813
      2 C         139.3934  145.3651  162.8383 C.2     1  UNL1        0.2439
      3 O         138.0146  144.8383  162.5714 O.2     1  UNL1       -0.2731
      4 N         139.9501  146.4718  161.9926 N.am    1  UNL1       -0.1970
      5 O         139.1280  147.0517  160.8800 O.3     1  UNL1       -0.2952
      6 H         140.8551  146.8175  162.1678 H       1  UNL1        0.1822
      7 H         138.2695  146.6017  160.8439 H       1  UNL1        0.2414
      8 C         139.5417  144.1025  165.1041 C.3     1  UNL1        0.0433
      9 C         139.5069  142.6044  165.1724 C.3     1  UNL1        0.1380
     10 C         140.3786  141.8780  166.1535 C.ar    1  UNL1        0.0047
     11 C         141.7884  142.3345  166.3857 C.ar    1  UNL1        0.0004
     12 C         142.6600  141.6080  167.3668 C.ar    1  UNL1        0.0294
     13 C         142.1218  140.4251  168.1157 C.ar    1  UNL1        0.1401
     14 F         142.9934  139.6987  169.0968 F       1  UNL1       -0.2042
     15 C         140.7119  139.9686  167.8836 C.ar    1  UNL1        0.0294
     16 C         139.8403  140.6950  166.9025 C.ar    1  UNL1        0.0004
     17 C         139.0409  141.5101  162.8626 C.3     1  UNL1        0.1745
     18 O         138.6006  141.8328  164.2597 O.3     1  UNL1       -0.3492
     19 C         141.7114  144.8881  163.9103 C.3     1  UNL1        0.0093
     20 C         142.5070  143.9260  163.0787 C.3     1  UNL1        0.0019
     21 C         144.0058  143.9486  163.1338 C.3     1  UNL1        0.0171
     22 C         144.8060  143.2695  162.0621 C.3     1  UNL1        0.0688
     23 N         145.4483  141.9414  162.3334 N.3     1  UNL1       -0.2937
     24 H         146.4347  142.0366  162.0920 H       1  UNL1        0.1236
     25 C         145.3948  141.3498  163.7108 C.3     1  UNL1        0.0956
     26 C         144.3096  140.3779  164.0680 C.ar    1  UNL1       -0.0062
     27 C         144.5355  139.3667  165.1527 C.ar    1  UNL1       -0.0006
     28 C         143.4502  138.3949  165.5098 C.ar    1  UNL1        0.0294
     29 C         142.1390  138.4341  164.7823 C.ar    1  UNL1        0.1401
     30 F         141.0538  137.4622  165.1395 F       1  UNL1       -0.2042
     31 C         141.9131  139.4453  163.6977 C.ar    1  UNL1        0.0294
     32 C         142.9984  140.4171  163.3405 C.ar    1  UNL1       -0.0006
@<TRIPOS>BOND
     1    17    18    1
     2    18     9    1
     3     9     8    1
     4     1     8    1
     5     1    19    1
     6    19    20    1
     7    20    21    1
     8    21    22    1
     9    22    23    1
    10    23    25    1
    11    25    26    1
    12    26    27   ar
    13    27    28   ar
    14    28    29   ar
    15    29    30    1
    16    29    31   ar
    17    31    32   ar
    18     1     2    1
    19     2     3    2
    20     2     4   am
    21     4     5    1
    22     9    10    1
    23    10    11   ar
    24    11    12   ar
    25    12    13   ar
    26    13    14    1
    27    13    15   ar
    28    15    16   ar
    29    32    26   ar
    30    16    10   ar
    31    23    24    1
    32     4     6    1
    33     5     7    1
@<TRIPOS>MOLECULE
*****
 32 33 0 0 0
SMALL
GASTEIGER

@<TRIPOS>ATOM
      1 C         140.1231  141.3577  168.0952 C.3     1  UNL1        0.0813
      2 C         139.8047  141.0076  169.5185 C.2     1  UNL1        0.2439
      3 O         139.2771  142.0588  170.4494 O.2     1  UNL1       -0.2731
      4 N         140.0137  139.6063  170.0110 N.am    1  UNL1       -0.1970
      5 O         139.6953  139.2562  171.4344 O.3     1  UNL1       -0.2952
      6 H         140.3600  138.9163  169.4001 H       1  UNL1        0.1822
      7 H         139.3673  140.0441  171.8956 H       1  UNL1        0.2414
      8 C         141.1034  142.4521  167.7933 C.3     1  UNL1        0.0433
      9 C         142.5731  142.1537  167.7569 C.3     1  UNL1        0.1380
     10 C         143.2656  141.9544  166.4414 C.ar    1  UNL1        0.0047
     11 C         143.9940  143.0962  165.7967 C.ar    1  UNL1        0.0004
     12 C         144.6865  142.8969  164.4811 C.ar    1  UNL1        0.0294
     13 C         144.6506  141.5559  163.8102 C.ar    1  UNL1        0.1401
     14 F         145.3431  141.3566  162.4947 F       1  UNL1       -0.2042
     15 C         143.9221  140.4140  164.4549 C.ar    1  UNL1        0.0294
     16 C         143.2296  140.6133  165.7704 C.ar    1  UNL1        0.0004
     17 C         142.9211  142.8438  170.2373 C.3     1  UNL1        0.1745
     18 O         143.3501  142.0545  169.0361 O.3     1  UNL1       -0.3492
     19 C         139.4613  140.6134  166.9736 C.3     1  UNL1        0.0093
     20 C         140.1122  139.3907  166.3979 C.3     1  UNL1        0.0019
     21 C         139.3256  138.4673  165.5155 C.3     1  UNL1        0.0171
     22 C         138.8046  138.9541  164.1958 C.3     1  UNL1        0.0688
     23 N         139.7614  139.3048  163.0949 N.3     1  UNL1       -0.2937
     24 H         139.5791  138.6565  162.3288 H       1  UNL1        0.1236
     25 C         139.7539  140.6842  162.5059 C.3     1  UNL1        0.0956
     26 C         139.4630  141.8702  163.3772 C.ar    1  UNL1       -0.0062
     27 C         140.5919  142.6708  163.9555 C.ar    1  UNL1       -0.0006
     28 C         140.3010  143.8567  164.8267 C.ar    1  UNL1        0.0294
     29 C         138.8812  144.2420  165.1195 C.ar    1  UNL1        0.1401
     30 F         138.5903  145.4280  165.9907 F       1  UNL1       -0.2042
     31 C         137.7523  143.4414  164.5411 C.ar    1  UNL1        0.0294
     32 C         138.0432  142.2555  163.6700 C.ar    1  UNL1       -0.0006
@<TRIPOS>BOND
     1    17    18    1
     2    18     9    1
     3     9     8    1
     4     1     8    1
     5     1    19    1
     6    19    20    1
     7    20    21    1
     8    21    22    1
     9    22    23    1
    10    23    25    1
    11    25    26    1
    12    26    27   ar
    13    27    28   ar
    14    28    29   ar
    15    29    30    1
    16    29    31   ar
    17    31    32   ar
    18     1     2    1
    19     2     3    2
    20     2     4   am
    21     4     5    1
    22     9    10    1
    23    10    11   ar
    24    11    12   ar
    25    12    13   ar
    26    13    14    1
    27    13    15   ar
    28    15    16   ar
    29    32    26   ar
    30    16    10   ar
    31    23    24    1
    32     4     6    1
    33     5     7    1
@<TRIPOS>MOLECULE
*****
 32 33 0 0 0
SMALL
GASTEIGER

@<TRIPOS>ATOM
      1 C         139.1992  139.8825  166.7582 C.3     1  UNL1        0.0813
      2 C         138.5304  139.4538  168.0306 C.2     1  UNL1        0.2439
      3 O         137.4405  138.4238  167.9950 O.2     1  UNL1       -0.2731
      4 N         138.9515  140.0551  169.3387 N.am    1  UNL1       -0.1970
      5 O         138.2828  139.6264  170.6111 O.3     1  UNL1       -0.2952
      6 H         139.6669  140.7311  169.3621 H       1  UNL1        0.1822
      7 H         137.6067  138.9598  170.4124 H       1  UNL1        0.2414
      8 C         140.0882  141.0905  166.7483 C.3     1  UNL1        0.0433
      9 C         141.5105  140.9789  167.2118 C.3     1  UNL1        0.1380
     10 C         142.6344  141.2160  166.2472 C.ar    1  UNL1        0.0047
     11 C         143.2691  142.5719  166.1537 C.ar    1  UNL1        0.0004
     12 C         144.3931  142.8090  165.1890 C.ar    1  UNL1        0.0294
     13 C         144.8824  141.6902  164.3179 C.ar    1  UNL1        0.1401
     14 F         146.0063  141.9273  163.3534 F       1  UNL1       -0.2042
     15 C         144.2477  140.3343  164.4115 C.ar    1  UNL1        0.0294
     16 C         143.1238  140.0972  165.3761 C.ar    1  UNL1        0.0004
     17 C         142.5548  139.3700  168.9641 C.3     1  UNL1        0.1745
     18 O         141.8087  140.6302  168.6399 O.3     1  UNL1       -0.3492
     19 C         138.9789  139.1030  165.4957 C.3     1  UNL1        0.0093
     20 C         140.0625  138.2111  164.9662 C.3     1  UNL1        0.0019
     21 C         140.1383  137.9135  163.4980 C.3     1  UNL1        0.0171
     22 C         141.2146  138.5384  162.6608 C.3     1  UNL1        0.0688
     23 N         141.1265  139.9882  162.2859 N.3     1  UNL1       -0.2937
     24 H         141.5514  140.0801  161.3632 H       1  UNL1        0.1236
     25 C         139.7897  140.6650  162.2163 C.3     1  UNL1        0.0956
     26 C         139.4960  141.8384  163.1034 C.ar    1  UNL1       -0.0062
     27 C         138.1004  142.0716  163.6010 C.ar    1  UNL1       -0.0006
     28 C         137.8067  143.2450  164.4881 C.ar    1  UNL1        0.0294
     29 C         138.9088  144.1851  164.8776 C.ar    1  UNL1        0.1401
     30 F         138.6151  145.3585  165.7647 F       1  UNL1       -0.2042
     31 C         140.3044  143.9519  164.3799 C.ar    1  UNL1        0.0294
     32 C         140.5981  142.7785  163.4929 C.ar    1  UNL1       -0.0006
@<TRIPOS>BOND
     1    17    18    1
     2    18     9    1
     3     9     8    1
     4     1     8    1
     5     1    19    1
     6    19    20    1
     7    20    21    1
     8    21    22    1
     9    22    23    1
    10    23    25    1
    11    25    26    1
    12    26    27   ar
    13    27    28   ar
    14    28    29   ar
    15    29    30    1
    16    29    31   ar
    17    31    32   ar
    18     1     2    1
    19     2     3    2
    20     2     4   am
    21     4     5    1
    22     9    10    1
    23    10    11   ar
    24    11    12   ar
    25    12    13   ar
    26    13    14    1
    27    13    15   ar
    28    15    16   ar
    29    32    26   ar
    30    16    10   ar
    31    23    24    1
    32     4     6    1
    33     5     7    1
@<TRIPOS>MOLECULE
*****
 32 33 0 0 0
SMALL
GASTEIGER

@<TRIPOS>ATOM
      1 C         141.8137  144.1701  162.6641 C.3     1  UNL1        0.0813
      2 C         141.1271  145.1305  161.7388 C.2     1  UNL1        0.2439
      3 O         141.5812  145.2544  160.3146 O.2     1  UNL1       -0.2731
      4 N         139.9864  145.9670  162.2376 N.am    1  UNL1       -0.1970
      5 O         139.2998  146.9274  161.3123 O.3     1  UNL1       -0.2952
      6 H         139.6883  145.8857  163.1724 H       1  UNL1        0.1822
      7 H         139.7132  146.8836  160.4359 H       1  UNL1        0.2414
      8 C         141.1870  142.8410  162.9655 C.3     1  UNL1        0.0433
      9 C         140.1189  142.7358  164.0135 C.3     1  UNL1        0.1380
     10 C         140.3582  141.9195  165.2489 C.ar    1  UNL1        0.0047
     11 C         141.6760  142.0044  165.9604 C.ar    1  UNL1        0.0004
     12 C         141.9153  141.1880  167.1959 C.ar    1  UNL1        0.0294
     13 C         140.8368  140.2868  167.7198 C.ar    1  UNL1        0.1401
     14 F         141.0761  139.4704  168.9552 F       1  UNL1       -0.2042
     15 C         139.5190  140.2018  167.0083 C.ar    1  UNL1        0.0294
     16 C         139.2797  141.0182  165.7729 C.ar    1  UNL1        0.0004
     17 C         137.8110  142.9285  162.8362 C.3     1  UNL1        0.1745
     18 O         138.8116  143.4470  163.8260 O.3     1  UNL1       -0.3492
     19 C         143.1270  144.5387  163.2880 C.3     1  UNL1        0.0093
     20 C         144.3337  143.6771  163.0603 C.3     1  UNL1        0.0019
     21 C         144.7260  142.6509  164.0814 C.3     1  UNL1        0.0171
     22 C         145.7532  141.6113  163.7436 C.3     1  UNL1        0.0688
     23 N         145.3365  140.1859  163.5325 N.3     1  UNL1       -0.2937
     24 H         146.1923  139.6425  163.4198 H       1  UNL1        0.1236
     25 C         144.5116  139.4841  164.5703 C.3     1  UNL1        0.0956
     26 C         143.1161  139.0403  164.2451 C.ar    1  UNL1       -0.0062
     27 C         142.4399  139.5413  163.0034 C.ar    1  UNL1       -0.0006
     28 C         141.0445  139.0975  162.6782 C.ar    1  UNL1        0.0294
     29 C         140.3252  138.1527  163.5947 C.ar    1  UNL1        0.1401
     30 F         138.9298  137.7089  163.2694 F       1  UNL1       -0.2042
     31 C         141.0014  137.6517  164.8364 C.ar    1  UNL1        0.0294
     32 C         142.3968  138.0955  165.1616 C.ar    1  UNL1       -0.0006
@<TRIPOS>BOND
     1    17    18    1
     2    18     9    1
     3     9     8    1
     4     1     8    1
     5     1    19    1
     6    19    20    1
     7    20    21    1
     8    21    22    1
     9    22    23    1
    10    23    25    1
    11    25    26    1
    12    26    27   ar
    13    27    28   ar
    14    28    29   ar
    15    29    30    1
    16    29    31   ar
    17    31    32   ar
    18     1     2    1
    19     2     3    2
    20     2     4   am
    21     4     5    1
    22     9    10    1
    23    10    11   ar
    24    11    12   ar
    25    12    13   ar
    26    13    14    1
    27    13    15   ar
    28    15    16   ar
    29    32    26   ar
    30    16    10   ar
    31    23    24    1
    32     4     6    1
    33     5     7    1
@<TRIPOS>MOLECULE
*****
 32 33 0 0 0
SMALL
GASTEIGER

@<TRIPOS>ATOM
      1 C         142.0012  142.4231  164.9572 C.3     1  UNL1        0.0813
      2 C         143.0506  142.5433  166.0223 C.2     1  UNL1        0.2439
      3 O         144.4775  142.8079  165.6428 O.2     1  UNL1       -0.2731
      4 N         142.6732  142.3990  167.4668 N.am    1  UNL1       -0.1970
      5 O         143.7226  142.5193  168.5318 O.3     1  UNL1       -0.2952
      6 H         141.7367  142.2254  167.7159 H       1  UNL1        0.1822
      7 H         144.5839  142.6891  168.1193 H       1  UNL1        0.2414
      8 C         141.8626  141.1468  164.1816 C.3     1  UNL1        0.0433
      9 C         141.8619  139.8294  164.8990 C.3     1  UNL1        0.1380
     10 C         140.5866  139.2901  165.4757 C.ar    1  UNL1        0.0047
     11 C         139.9440  138.0771  164.8710 C.ar    1  UNL1        0.0004
     12 C         138.6686  137.5378  165.4477 C.ar    1  UNL1        0.0294
     13 C         138.0358  138.2115  166.6291 C.ar    1  UNL1        0.1401
     14 F         136.7604  137.6722  167.2057 F       1  UNL1       -0.2042
     15 C         138.6784  139.4246  167.2337 C.ar    1  UNL1        0.0294
     16 C         139.9537  139.9639  166.6571 C.ar    1  UNL1        0.0004
     17 C         143.5331  138.4967  166.3758 C.3     1  UNL1        0.1745
     18 O         143.1366  139.0514  165.0397 O.3     1  UNL1       -0.3492
     19 C         141.0904  143.5792  164.6679 C.3     1  UNL1        0.0093
     20 C         141.5983  144.7582  163.8917 C.3     1  UNL1        0.0019
     21 C         141.1902  144.9461  162.4606 C.3     1  UNL1        0.0171
     22 C         140.1244  145.9412  162.1092 C.3     1  UNL1        0.0688
     23 N         138.7018  145.4923  161.9511 N.3     1  UNL1       -0.2937
     24 H         138.6554  144.9618  161.0811 H       1  UNL1        0.1236
     25 C         138.0608  144.6448  163.0098 C.3     1  UNL1        0.0956
     26 C         137.9841  143.1570  162.8350 C.ar    1  UNL1       -0.0062
     27 C         137.7326  142.2744  164.0214 C.ar    1  UNL1       -0.0006
     28 C         137.6560  140.7866  163.8466 C.ar    1  UNL1        0.0294
     29 C         137.8309  140.1814  162.4853 C.ar    1  UNL1        0.1401
     30 F         137.7542  138.6936  162.3105 F       1  UNL1       -0.2042
     31 C         138.0824  141.0640  161.2988 C.ar    1  UNL1        0.0294
     32 C         138.1590  142.5518  161.4736 C.ar    1  UNL1       -0.0006
@<TRIPOS>BOND
     1    17    18    1
     2    18     9    1
     3     9     8    1
     4     1     8    1
     5     1    19    1
     6    19    20    1
     7    20    21    1
     8    21    22    1
     9    22    23    1
    10    23    25    1
    11    25    26    1
    12    26    27   ar
    13    27    28   ar
    14    28    29   ar
    15    29    30    1
    16    29    31   ar
    17    31    32   ar
    18     1     2    1
    19     2     3    2
    20     2     4   am
    21     4     5    1
    22     9    10    1
    23    10    11   ar
    24    11    12   ar
    25    12    13   ar
    26    13    14    1
    27    13    15   ar
    28    15    16   ar
    29    32    26   ar
    30    16    10   ar
    31    23    24    1
    32     4     6    1
    33     5     7    1
@<TRIPOS>MOLECULE
*****
 32 33 0 0 0
SMALL
GASTEIGER

@<TRIPOS>ATOM
      1 C         139.0322  139.7183  165.3313 C.3     1  UNL1        0.0813
      2 C         138.4085  138.4782  165.8999 C.2     1  UNL1        0.2439
      3 O         138.7490  137.1357  165.3240 O.2     1  UNL1       -0.2731
      4 N         137.4445  138.5807  167.0444 N.am    1  UNL1       -0.1970
      5 O         136.8209  137.3406  167.6131 O.3     1  UNL1       -0.2952
      6 H         137.2211  139.4618  167.4225 H       1  UNL1        0.1822
      7 H         137.1456  136.5647  167.1300 H       1  UNL1        0.2414
      8 C         140.5223  139.8880  165.3572 C.3     1  UNL1        0.0433
      9 C         141.2534  139.8976  166.6670 C.3     1  UNL1        0.1380
     10 C         140.7652  140.7611  167.7921 C.ar    1  UNL1        0.0047
     11 C         140.9967  142.2427  167.7554 C.ar    1  UNL1        0.0004
     12 C         140.5084  143.1062  168.8806 C.ar    1  UNL1        0.0294
     13 C         139.7887  142.4882  170.0424 C.ar    1  UNL1        0.1401
     14 F         139.3005  143.3517  171.1675 F       1  UNL1       -0.2042
     15 C         139.5572  141.0066  170.0792 C.ar    1  UNL1        0.0294
     16 C         140.0454  140.1431  168.9540 C.ar    1  UNL1        0.0004
     17 C         143.0296  138.2710  165.6928 C.3     1  UNL1        0.1745
     18 O         142.4727  139.0437  166.8516 O.3     1  UNL1       -0.3492
     19 C         138.1657  140.7886  164.7367 C.3     1  UNL1        0.0093
     20 C         138.5825  142.2268  164.8262 C.3     1  UNL1        0.0019
     21 C         137.7097  143.2983  164.2430 C.3     1  UNL1        0.0171
     22 C         138.3288  144.4719  163.5437 C.3     1  UNL1        0.0688
     23 N         138.8056  144.3354  162.1280 N.3     1  UNL1       -0.2937
     24 H         138.3515  145.0748  161.5918 H       1  UNL1        0.1236
     25 C         140.2713  144.4144  161.8193 C.3     1  UNL1        0.0956
     26 C         141.2551  143.6439  162.6490 C.ar    1  UNL1       -0.0062
     27 C         141.6489  142.2535  162.2468 C.ar    1  UNL1       -0.0006
     28 C         142.6327  141.4831  163.0766 C.ar    1  UNL1        0.0294
     29 C         143.2227  142.1030  164.3085 C.ar    1  UNL1        0.1401
     30 F         144.2065  141.3324  165.1383 F       1  UNL1       -0.2042
     31 C         142.8289  143.4933  164.7107 C.ar    1  UNL1        0.0294
     32 C         141.8451  144.2638  163.8809 C.ar    1  UNL1       -0.0006
@<TRIPOS>BOND
     1    17    18    1
     2    18     9    1
     3     9     8    1
     4     1     8    1
     5     1    19    1
     6    19    20    1
     7    20    21    1
     8    21    22    1
     9    22    23    1
    10    23    25    1
    11    25    26    1
    12    26    27   ar
    13    27    28   ar
    14    28    29   ar
    15    29    30    1
    16    29    31   ar
    17    31    32   ar
    18     1     2    1
    19     2     3    2
    20     2     4   am
    21     4     5    1
    22     9    10    1
    23    10    11   ar
    24    11    12   ar
    25    12    13   ar
    26    13    14    1
    27    13    15   ar
    28    15    16   ar
    29    32    26   ar
    30    16    10   ar
    31    23    24    1
    32     4     6    1
    33     5     7    1
