@<TRIPOS>MOLECULE
*****
 35 39 0 0 0
SMALL
GASTEIGER

@<TRIPOS>ATOM
      1 N         137.9755  142.0417  163.4102 N.3     1  UNL1       -0.2724
      2 C         137.8549  142.8386  164.6753 C.3     1  UNL1        0.0721
      3 C         138.2908  144.2435  164.3815 C.3     1  UNL1        0.0187
      4 C         138.6807  144.3149  162.9349 C.3     1  UNL1        0.0178
      5 C         138.4859  142.9542  162.3346 C.3     1  UNL1        0.0721
      6 C         137.6440  140.5878  163.2490 C.3     1  UNL1        0.0768
      7 C         138.6589  139.5429  163.6069 C.3     1  UNL1        0.0439
      8 C         139.7093  139.8390  164.6361 C.ar    1  UNL1       -0.0193
      9 C         141.0978  140.2090  164.2058 C.ar    1  UNL1       -0.0041
     10 C         142.1480  140.5051  165.2350 C.ar    1  UNL1        0.0012
     11 C         141.8098  140.4312  166.6945 C.ar    1  UNL1        0.0192
     12 C         140.4213  140.0612  167.1248 C.ar    1  UNL1        0.0842
     13 C         139.3711  139.7651  166.0956 C.ar    1  UNL1        0.0150
     14 N         140.0831  139.9872  168.5843 N.ar    1  UNL1       -0.2089
     15 C         141.0487  140.1401  169.7220 C.ar    1  UNL1        0.1245
     16 C         140.2823  139.9948  171.0032 C.ar    1  UNL1        0.1445
     17 N         138.8431  139.7520  170.6574 N.ar    1  UNL1       -0.1268
     18 N         138.7200  139.7474  169.1623 N.ar    1  UNL1       -0.0595
     19 C         138.6236  138.2019  162.9356 C.3     1  UNL1        0.0474
     20 O         139.1684  138.1895  160.3952 O.co2   1  UNL1       -0.5492
     21 C         139.5700  137.9008  161.8114 C.2     1  UNL1        0.0507
     22 O         140.9179  137.3110  162.1034 O.co2   1  UNL1       -0.5492
     23 C         139.1782  145.5332  162.2150 C.3     1  UNL1        0.0077
     24 C         140.5608  145.5485  161.6336 C.3     1  UNL1        0.0459
     25 C         141.6705  144.8068  162.3182 C.ar    1  UNL1        0.0603
     26 C         142.2976  145.3724  163.5579 C.ar    1  UNL1        0.0145
     27 C         143.4072  144.6309  164.2424 C.ar    1  UNL1       -0.0003
     28 C         143.8899  143.3236  163.6873 C.ar    1  UNL1        0.0092
     29 C         143.2629  142.7580  162.4476 C.ar    1  UNL1        0.1240
     30 N         142.1532  143.4996  161.7630 N.ar    1  UNL1       -0.2356
     31 N         143.7455  141.4508  161.8924 N.pl3   1  UNL1       -0.3184
     32 C         144.8552  140.7092  162.5770 C.3     1  UNL1        0.0885
     33 C         145.4822  141.2748  163.8167 C.3     1  UNL1        0.0260
     34 C         144.9996  142.5820  164.3719 C.3     1  UNL1        0.0309
     35 H         143.3340  141.0795  161.0788 H       1  UNL1        0.1482
@<TRIPOS>UNITY_ATOM_ATTR
20 1
charge -1
@<TRIPOS>BOND
     1    20    21   ar
     2    21    22   ar
     3    21    19    1
     4     7    19    1
     5     7     6    1
     6     6     1    1
     7     1     2    1
     8     2     3    1
     9     3     4    1
    10     4    23    1
    11    23    24    1
    12    24    25    1
    13    25    26   ar
    14    26    27   ar
    15    27    28   ar
    16    28    29   ar
    17    29    30   ar
    18    29    31    1
    19    31    32    1
    20    32    33    1
    21    33    34    1
    22     4     5    1
    23     7     8    1
    24     8     9   ar
    25     9    10   ar
    26    10    11   ar
    27    11    12   ar
    28    12    14    1
    29    14    15   ar
    30    15    16   ar
    31    16    17   ar
    32    17    18   ar
    33    12    13   ar
    34     5     1    1
    35    13     8   ar
    36    30    25   ar
    37    18    14   ar
    38    34    28    1
    39    31    35    1
@<TRIPOS>MOLECULE
*****
 35 39 0 0 0
SMALL
GASTEIGER

@<TRIPOS>ATOM
      1 N         138.1708  141.4060  164.0705 N.3     1  UNL1       -0.2724
      2 C         137.7466  140.9691  162.6996 C.3     1  UNL1        0.0721
      3 C         138.0635  139.5097  162.5595 C.3     1  UNL1        0.0187
      4 C         138.6835  139.0446  163.8437 C.3     1  UNL1        0.0178
      5 C         138.7498  140.2166  164.7775 C.3     1  UNL1        0.0721
      6 C         138.0391  142.7894  164.6351 C.3     1  UNL1        0.0768
      7 C         139.2524  143.6595  164.7788 C.3     1  UNL1        0.0439
      8 C         140.4071  143.2033  165.6208 C.ar    1  UNL1       -0.0193
      9 C         141.7800  143.1104  165.0239 C.ar    1  UNL1       -0.0041
     10 C         142.9345  142.6541  165.8658 C.ar    1  UNL1        0.0012
     11 C         142.7161  142.2908  167.3047 C.ar    1  UNL1        0.0192
     12 C         141.3431  142.3837  167.9016 C.ar    1  UNL1        0.0842
     13 C         140.1886  142.8399  167.0596 C.ar    1  UNL1        0.0150
     14 N         141.1247  142.0203  169.3404 N.ar    1  UNL1       -0.2089
     15 C         141.0276  140.6295  169.8936 C.ar    1  UNL1        0.1245
     16 C         140.8079  140.7336  171.3738 C.ar    1  UNL1        0.1445
     17 N         140.7692  142.1888  171.7354 N.ar    1  UNL1       -0.1268
     18 N         140.9650  142.9841  170.4786 N.ar    1  UNL1       -0.0595
     19 C         139.3113  144.9858  164.0806 C.3     1  UNL1        0.0474
     20 O         139.8675  143.7865  161.8440 O.co2   1  UNL1       -0.5492
     21 C         139.6603  145.0514  162.6232 C.2     1  UNL1        0.0507
     22 O         139.8021  146.3818  161.9451 O.co2   1  UNL1       -0.5492
     23 C         139.1545  137.6520  164.1417 C.3     1  UNL1        0.0077
     24 C         140.4946  137.1921  163.6493 C.3     1  UNL1        0.0459
     25 C         141.6928  138.0830  163.7932 C.ar    1  UNL1        0.0603
     26 C         142.5279  138.0216  165.0377 C.ar    1  UNL1        0.0145
     27 C         143.7260  138.9125  165.1816 C.ar    1  UNL1       -0.0003
     28 C         144.0891  139.8649  164.0810 C.ar    1  UNL1        0.0092
     29 C         143.2540  139.9263  162.8365 C.ar    1  UNL1        0.1240
     30 N         142.0558  139.0353  162.6926 N.ar    1  UNL1       -0.2356
     31 N         143.6170  140.8786  161.7359 N.pl3   1  UNL1       -0.3184
     32 C         144.8151  141.7695  161.8799 C.3     1  UNL1        0.0885
     33 C         145.6503  141.7080  163.1244 C.3     1  UNL1        0.0260
     34 C         145.2873  140.7557  164.2249 C.3     1  UNL1        0.0309
     35 H         143.0689  140.9189  160.9191 H       1  UNL1        0.1482
@<TRIPOS>UNITY_ATOM_ATTR
20 1
charge -1
@<TRIPOS>BOND
     1    20    21   ar
     2    21    22   ar
     3    21    19    1
     4     7    19    1
     5     7     6    1
     6     6     1    1
     7     1     2    1
     8     2     3    1
     9     3     4    1
    10     4    23    1
    11    23    24    1
    12    24    25    1
    13    25    26   ar
    14    26    27   ar
    15    27    28   ar
    16    28    29   ar
    17    29    30   ar
    18    29    31    1
    19    31    32    1
    20    32    33    1
    21    33    34    1
    22     4     5    1
    23     7     8    1
    24     8     9   ar
    25     9    10   ar
    26    10    11   ar
    27    11    12   ar
    28    12    14    1
    29    14    15   ar
    30    15    16   ar
    31    16    17   ar
    32    17    18   ar
    33    12    13   ar
    34     5     1    1
    35    13     8   ar
    36    30    25   ar
    37    18    14   ar
    38    34    28    1
    39    31    35    1
@<TRIPOS>MOLECULE
*****
 35 39 0 0 0
SMALL
GASTEIGER

@<TRIPOS>ATOM
      1 N         141.9091  143.7680  164.1675 N.3     1  UNL1       -0.2724
      2 C         142.4913  144.4306  162.9542 C.3     1  UNL1        0.0721
      3 C         143.8821  143.9032  162.7604 C.3     1  UNL1        0.0187
      4 C         144.1596  142.9147  163.8539 C.3     1  UNL1        0.0178
      5 C         142.9402  142.8311  164.7236 C.3     1  UNL1        0.0721
      6 C         140.5369  144.0013  164.7266 C.3     1  UNL1        0.0768
      7 C         139.4552  142.9854  164.5077 C.3     1  UNL1        0.0439
      8 C         139.3425  141.8010  165.4214 C.ar    1  UNL1       -0.0193
      9 C         138.3092  140.7461  165.1579 C.ar    1  UNL1       -0.0041
     10 C         138.1966  139.5619  166.0716 C.ar    1  UNL1        0.0012
     11 C         139.1173  139.4325  167.2488 C.ar    1  UNL1        0.0192
     12 C         140.1506  140.4874  167.5122 C.ar    1  UNL1        0.0842
     13 C         140.2632  141.6717  166.5986 C.ar    1  UNL1        0.0150
     14 N         141.0712  140.3580  168.6894 N.ar    1  UNL1       -0.2089
     15 C         140.8929  141.0173  170.0249 C.ar    1  UNL1        0.1245
     16 C         142.0433  140.6134  170.8986 C.ar    1  UNL1        0.1445
     17 N         142.9327  139.7046  170.1030 N.ar    1  UNL1       -0.1268
     18 N         142.3319  139.5467  168.7376 N.ar    1  UNL1       -0.0595
     19 C         138.4862  143.1539  163.3752 C.3     1  UNL1        0.0474
     20 O         140.0933  141.8863  161.7750 O.co2   1  UNL1       -0.5492
     21 C         138.8718  142.7303  161.9889 C.2     1  UNL1        0.0507
     22 O         138.0359  143.1507  160.8165 O.co2   1  UNL1       -0.5492
     23 C         145.4328  142.1450  164.0444 C.3     1  UNL1        0.0077
     24 C         145.4395  140.6540  163.8804 C.3     1  UNL1        0.0459
     25 C         144.1545  139.8846  163.9637 C.ar    1  UNL1        0.0603
     26 C         143.7805  139.1849  165.2367 C.ar    1  UNL1        0.0145
     27 C         142.4956  138.4154  165.3200 C.ar    1  UNL1       -0.0003
     28 C         141.5847  138.3456  164.1303 C.ar    1  UNL1        0.0092
     29 C         141.9586  139.0453  162.8573 C.ar    1  UNL1        0.1240
     30 N         143.2436  139.8148  162.7740 N.ar    1  UNL1       -0.2356
     31 N         141.0477  138.9756  161.6676 N.pl3   1  UNL1       -0.3184
     32 C         139.7629  138.2061  161.7510 C.3     1  UNL1        0.0885
     33 C         139.3889  137.5064  163.0240 C.3     1  UNL1        0.0260
     34 C         140.2998  137.5762  164.2137 C.3     1  UNL1        0.0309
     35 H         141.2932  139.4348  160.8321 H       1  UNL1        0.1482
@<TRIPOS>UNITY_ATOM_ATTR
20 1
charge -1
@<TRIPOS>BOND
     1    20    21   ar
     2    21    22   ar
     3    21    19    1
     4     7    19    1
     5     7     6    1
     6     6     1    1
     7     1     2    1
     8     2     3    1
     9     3     4    1
    10     4    23    1
    11    23    24    1
    12    24    25    1
    13    25    26   ar
    14    26    27   ar
    15    27    28   ar
    16    28    29   ar
    17    29    30   ar
    18    29    31    1
    19    31    32    1
    20    32    33    1
    21    33    34    1
    22     4     5    1
    23     7     8    1
    24     8     9   ar
    25     9    10   ar
    26    10    11   ar
    27    11    12   ar
    28    12    14    1
    29    14    15   ar
    30    15    16   ar
    31    16    17   ar
    32    17    18   ar
    33    12    13   ar
    34     5     1    1
    35    13     8   ar
    36    30    25   ar
    37    18    14   ar
    38    34    28    1
    39    31    35    1
@<TRIPOS>MOLECULE
*****
 35 39 0 0 0
SMALL
GASTEIGER

@<TRIPOS>ATOM
      1 N         142.3865  144.2309  164.1282 N.3     1  UNL1       -0.2724
      2 C         142.3239  145.0792  162.8926 C.3     1  UNL1        0.0721
      3 C         140.8835  145.2167  162.4972 C.3     1  UNL1        0.0187
      4 C         140.0559  144.4533  163.4882 C.3     1  UNL1        0.0178
      5 C         140.9847  143.8440  164.4962 C.3     1  UNL1        0.0721
      6 C         143.6321  143.8383  164.8660 C.3     1  UNL1        0.0768
      7 C         144.0488  142.3984  164.9210 C.3     1  UNL1        0.0439
      8 C         143.4138  141.4713  165.9147 C.ar    1  UNL1       -0.0193
      9 C         143.4710  139.9879  165.6994 C.ar    1  UNL1       -0.0041
     10 C         142.8360  139.0609  166.6931 C.ar    1  UNL1        0.0012
     11 C         142.1439  139.6172  167.9020 C.ar    1  UNL1        0.0192
     12 C         142.0867  141.1005  168.1173 C.ar    1  UNL1        0.0842
     13 C         142.7217  142.0276  167.1237 C.ar    1  UNL1        0.0150
     14 N         141.3946  141.6569  169.3263 N.ar    1  UNL1       -0.2089
     15 C         140.3323  142.7158  169.3247 C.ar    1  UNL1        0.1245
     16 C         139.9244  142.9653  170.7465 C.ar    1  UNL1        0.1445
     17 N         140.7347  142.0605  171.6267 N.ar    1  UNL1       -0.1268
     18 N         141.6434  141.2519  170.7489 N.ar    1  UNL1       -0.0595
     19 C         145.1006  141.8856  163.9825 C.3     1  UNL1        0.0474
     20 O         144.9342  142.6061  161.4918 O.co2   1  UNL1       -0.5492
     21 C         144.7463  141.5694  162.5596 C.2     1  UNL1        0.0507
     22 O         144.2043  140.2167  162.2045 O.co2   1  UNL1       -0.5492
     23 C         138.5617  144.3222  163.4738 C.3     1  UNL1        0.0077
     24 C         137.9246  143.0564  162.9820 C.3     1  UNL1        0.0459
     25 C         138.4478  141.7268  163.4387 C.ar    1  UNL1        0.0603
     26 C         137.8548  141.0619  164.6455 C.ar    1  UNL1        0.0145
     27 C         138.3778  139.7324  165.1022 C.ar    1  UNL1       -0.0003
     28 C         139.4940  139.0676  164.3522 C.ar    1  UNL1        0.0092
     29 C         140.0870  139.7325  163.1455 C.ar    1  UNL1        0.1240
     30 N         139.5639  141.0621  162.6887 N.ar    1  UNL1       -0.2356
     31 N         141.2031  139.0679  162.3955 N.pl3   1  UNL1       -0.3184
     32 C         141.7261  137.7383  162.8523 C.3     1  UNL1        0.0885
     33 C         141.1331  137.0734  164.0590 C.3     1  UNL1        0.0260
     34 C         140.0170  137.7381  164.8090 C.3     1  UNL1        0.0309
     35 H         141.5923  139.5042  161.6035 H       1  UNL1        0.1482
@<TRIPOS>UNITY_ATOM_ATTR
20 1
charge -1
@<TRIPOS>BOND
     1    20    21   ar
     2    21    22   ar
     3    21    19    1
     4     7    19    1
     5     7     6    1
     6     6     1    1
     7     1     2    1
     8     2     3    1
     9     3     4    1
    10     4    23    1
    11    23    24    1
    12    24    25    1
    13    25    26   ar
    14    26    27   ar
    15    27    28   ar
    16    28    29   ar
    17    29    30   ar
    18    29    31    1
    19    31    32    1
    20    32    33    1
    21    33    34    1
    22     4     5    1
    23     7     8    1
    24     8     9   ar
    25     9    10   ar
    26    10    11   ar
    27    11    12   ar
    28    12    14    1
    29    14    15   ar
    30    15    16   ar
    31    16    17   ar
    32    17    18   ar
    33    12    13   ar
    34     5     1    1
    35    13     8   ar
    36    30    25   ar
    37    18    14   ar
    38    34    28    1
    39    31    35    1
@<TRIPOS>MOLECULE
*****
 35 39 0 0 0
SMALL
GASTEIGER

@<TRIPOS>ATOM
      1 N         138.2044  140.3183  163.9899 N.3     1  UNL1       -0.2724
      2 C         137.8664  140.7804  162.6034 C.3     1  UNL1        0.0721
      3 C         137.6760  142.2677  162.6439 C.3     1  UNL1        0.0187
      4 C         137.8963  142.7249  164.0555 C.3     1  UNL1        0.0178
      5 C         138.2228  141.5201  164.8873 C.3     1  UNL1        0.0721
      6 C         138.4762  138.9030  164.4059 C.3     1  UNL1        0.0768
      7 C         139.8678  138.3499  164.3193 C.3     1  UNL1        0.0439
      8 C         140.8701  138.6704  165.3884 C.ar    1  UNL1       -0.0193
      9 C         142.3027  138.2587  165.2210 C.ar    1  UNL1       -0.0041
     10 C         143.3050  138.5793  166.2901 C.ar    1  UNL1        0.0012
     11 C         142.8745  139.3115  167.5264 C.ar    1  UNL1        0.0192
     12 C         141.4419  139.7232  167.6938 C.ar    1  UNL1        0.0842
     13 C         140.4397  139.4027  166.6248 C.ar    1  UNL1        0.0150
     14 N         141.0115  140.4554  168.9302 N.ar    1  UNL1       -0.2089
     15 C         141.9017  140.8711  170.0636 C.ar    1  UNL1        0.1245
     16 C         141.0557  141.5731  171.0841 C.ar    1  UNL1        0.1445
     17 N         139.6426  141.5913  170.5814 N.ar    1  UNL1       -0.1268
     18 N         139.6153  140.9004  169.2501 N.ar    1  UNL1       -0.0595
     19 C         140.2571  137.4764  163.1638 C.3     1  UNL1        0.0474
     20 O         141.8282  138.7563  161.5377 O.co2   1  UNL1       -0.5492
     21 C         140.5162  138.0849  161.8175 C.2     1  UNL1        0.0507
     22 O         139.4634  138.0220  160.7509 O.co2   1  UNL1       -0.5492
     23 C         137.8058  144.1386  164.5486 C.3     1  UNL1        0.0077
     24 C         139.0475  144.8663  164.9710 C.3     1  UNL1        0.0459
     25 C         140.3743  144.4916  164.3800 C.ar    1  UNL1        0.0603
     26 C         140.8635  145.1785  163.1394 C.ar    1  UNL1        0.0145
     27 C         142.1902  144.8038  162.5483 C.ar    1  UNL1       -0.0003
     28 C         143.0278  143.7423  163.1978 C.ar    1  UNL1        0.0092
     29 C         142.5386  143.0555  164.4383 C.ar    1  UNL1        0.1240
     30 N         141.2118  143.4302  165.0294 N.ar    1  UNL1       -0.2356
     31 N         143.3761  141.9940  165.0877 N.pl3   1  UNL1       -0.3184
     32 C         144.7028  141.6193  164.4967 C.3     1  UNL1        0.0885
     33 C         145.1920  142.3062  163.2561 C.3     1  UNL1        0.0260
     34 C         144.3545  143.3677  162.6067 C.3     1  UNL1        0.0309
     35 H         143.0550  141.5432  165.9019 H       1  UNL1        0.1482
@<TRIPOS>UNITY_ATOM_ATTR
20 1
charge -1
@<TRIPOS>BOND
     1    20    21   ar
     2    21    22   ar
     3    21    19    1
     4     7    19    1
     5     7     6    1
     6     6     1    1
     7     1     2    1
     8     2     3    1
     9     3     4    1
    10     4    23    1
    11    23    24    1
    12    24    25    1
    13    25    26   ar
    14    26    27   ar
    15    27    28   ar
    16    28    29   ar
    17    29    30   ar
    18    29    31    1
    19    31    32    1
    20    32    33    1
    21    33    34    1
    22     4     5    1
    23     7     8    1
    24     8     9   ar
    25     9    10   ar
    26    10    11   ar
    27    11    12   ar
    28    12    14    1
    29    14    15   ar
    30    15    16   ar
    31    16    17   ar
    32    17    18   ar
    33    12    13   ar
    34     5     1    1
    35    13     8   ar
    36    30    25   ar
    37    18    14   ar
    38    34    28    1
    39    31    35    1
@<TRIPOS>MOLECULE
*****
 35 39 0 0 0
SMALL
GASTEIGER

@<TRIPOS>ATOM
      1 N         142.8415  140.2522  167.1380 N.3     1  UNL1       -0.2724
      2 C         143.0839  138.7722  167.1093 C.3     1  UNL1        0.0721
      3 C         143.7708  138.4399  165.8179 C.3     1  UNL1        0.0187
      4 C         143.9530  139.7146  165.0484 C.3     1  UNL1        0.0178
      5 C         143.3786  140.8346  165.8643 C.3     1  UNL1        0.0721
      6 C         142.1784  141.0157  168.2458 C.3     1  UNL1        0.0768
      7 C         140.6829  141.0225  168.3616 C.3     1  UNL1        0.0439
      8 C         139.8347  140.9276  167.1279 C.ar    1  UNL1       -0.0193
      9 C         139.0749  139.6679  166.8352 C.ar    1  UNL1       -0.0041
     10 C         138.2268  139.5731  165.6016 C.ar    1  UNL1        0.0012
     11 C         138.1385  140.7380  164.6608 C.ar    1  UNL1        0.0192
     12 C         138.8983  141.9978  164.9535 C.ar    1  UNL1        0.0842
     13 C         139.7464  142.0926  166.1871 C.ar    1  UNL1        0.0150
     14 N         138.8100  143.1627  164.0127 N.ar    1  UNL1       -0.2089
     15 C         139.8088  144.2752  163.8907 C.ar    1  UNL1        0.1245
     16 C         139.3236  145.2197  162.8313 C.ar    1  UNL1        0.1445
     17 N         138.0248  144.6910  162.2986 N.ar    1  UNL1       -0.1268
     18 N         137.7075  143.4197  163.0288 N.ar    1  UNL1       -0.0595
     19 C         140.0355  141.1240  169.7108 C.3     1  UNL1        0.0474
     20 O         139.9969  143.7203  169.7997 O.co2   1  UNL1       -0.5492
     21 C         140.1334  142.3985  170.4957 C.2     1  UNL1        0.0507
     22 O         140.3679  142.3513  171.9765 O.co2   1  UNL1       -0.5492
     23 C         144.5965  139.8461  163.6999 C.3     1  UNL1        0.0077
     24 C         144.0593  140.8322  162.7055 C.3     1  UNL1        0.0459
     25 C         142.6267  140.7515  162.2681 C.ar    1  UNL1        0.0603
     26 C         141.9812  141.9256  161.5937 C.ar    1  UNL1        0.0145
     27 C         140.5487  141.8450  161.1563 C.ar    1  UNL1       -0.0003
     28 C         139.7616  140.5902  161.3933 C.ar    1  UNL1        0.0092
     29 C         140.4070  139.4162  162.0678 C.ar    1  UNL1        0.1240
     30 N         141.8396  139.4968  162.5052 N.ar    1  UNL1       -0.2356
     31 N         139.6200  138.1614  162.3048 N.pl3   1  UNL1       -0.3184
     32 C         138.1875  138.0808  161.8674 C.3     1  UNL1        0.0885
     33 C         137.5420  139.2549  161.1930 C.3     1  UNL1        0.0260
     34 C         138.3291  140.5096  160.9559 C.3     1  UNL1        0.0309
     35 H         140.0437  137.3909  162.7475 H       1  UNL1        0.1482
@<TRIPOS>UNITY_ATOM_ATTR
20 1
charge -1
@<TRIPOS>BOND
     1    20    21   ar
     2    21    22   ar
     3    21    19    1
     4     7    19    1
     5     7     6    1
     6     6     1    1
     7     1     2    1
     8     2     3    1
     9     3     4    1
    10     4    23    1
    11    23    24    1
    12    24    25    1
    13    25    26   ar
    14    26    27   ar
    15    27    28   ar
    16    28    29   ar
    17    29    30   ar
    18    29    31    1
    19    31    32    1
    20    32    33    1
    21    33    34    1
    22     4     5    1
    23     7     8    1
    24     8     9   ar
    25     9    10   ar
    26    10    11   ar
    27    11    12   ar
    28    12    14    1
    29    14    15   ar
    30    15    16   ar
    31    16    17   ar
    32    17    18   ar
    33    12    13   ar
    34     5     1    1
    35    13     8   ar
    36    30    25   ar
    37    18    14   ar
    38    34    28    1
    39    31    35    1
@<TRIPOS>MOLECULE
*****
 35 39 0 0 0
SMALL
GASTEIGER

@<TRIPOS>ATOM
      1 N         139.7026  138.6432  163.3367 N.3     1  UNL1       -0.2724
      2 C         140.3874  137.7620  164.3390 C.3     1  UNL1        0.0721
      3 C         141.6828  137.2993  163.7408 C.3     1  UNL1        0.0187
      4 C         141.7986  137.8945  162.3689 C.3     1  UNL1        0.0178
      5 C         140.5748  138.7251  162.1191 C.3     1  UNL1        0.0721
      6 C         138.3781  139.3231  163.5199 C.3     1  UNL1        0.0768
      7 C         138.3248  140.7874  163.8407 C.3     1  UNL1        0.0439
      8 C         139.2293  141.3582  164.8925 C.ar    1  UNL1       -0.0193
      9 C         140.1751  142.4696  164.5458 C.ar    1  UNL1       -0.0041
     10 C         141.0795  143.0403  165.5976 C.ar    1  UNL1        0.0012
     11 C         141.0381  142.4996  166.9962 C.ar    1  UNL1        0.0192
     12 C         140.0923  141.3883  167.3429 C.ar    1  UNL1        0.0842
     13 C         139.1879  140.8176  166.2911 C.ar    1  UNL1        0.0150
     14 N         140.0509  140.8476  168.7415 N.ar    1  UNL1       -0.2089
     15 C         141.0534  141.1221  169.8230 C.ar    1  UNL1        0.1245
     16 C         140.6218  140.3817  171.0540 C.ar    1  UNL1        0.1445
     17 N         139.3525  139.6495  170.7334 N.ar    1  UNL1       -0.1268
     18 N         138.9997  139.9375  169.3041 N.ar    1  UNL1       -0.0595
     19 C         137.3670  141.6810  163.1098 C.3     1  UNL1        0.0474
     20 O         137.9529  143.9623  162.0132 O.co2   1  UNL1       -0.5492
     21 C         137.8343  142.4697  161.9225 C.2     1  UNL1        0.0507
     22 O         138.1831  141.7659  160.6446 O.co2   1  UNL1       -0.5492
     23 C         142.9382  137.6943  161.4143 C.3     1  UNL1        0.0077
     24 C         143.8491  138.8391  161.0832 C.3     1  UNL1        0.0459
     25 C         144.0329  139.9593  162.0638 C.ar    1  UNL1        0.0603
     26 C         144.6897  139.6977  163.3867 C.ar    1  UNL1        0.0145
     27 C         144.8735  140.8177  164.3674 C.ar    1  UNL1       -0.0003
     28 C         144.4004  142.1995  164.0251 C.ar    1  UNL1        0.0092
     29 C         143.7435  142.4610  162.7022 C.ar    1  UNL1        0.1240
     30 N         143.5597  141.3409  161.7215 N.ar    1  UNL1       -0.2356
     31 N         143.2704  143.8427  162.3599 N.pl3   1  UNL1       -0.3184
     32 C         143.4542  144.9627  163.3405 C.3     1  UNL1        0.0885
     33 C         144.1110  144.7012  164.6634 C.3     1  UNL1        0.0260
     34 C         144.5841  143.3195  165.0057 C.3     1  UNL1        0.0309
     35 H         142.8393  144.0143  161.4916 H       1  UNL1        0.1482
@<TRIPOS>UNITY_ATOM_ATTR
20 1
charge -1
@<TRIPOS>BOND
     1    20    21   ar
     2    21    22   ar
     3    21    19    1
     4     7    19    1
     5     7     6    1
     6     6     1    1
     7     1     2    1
     8     2     3    1
     9     3     4    1
    10     4    23    1
    11    23    24    1
    12    24    25    1
    13    25    26   ar
    14    26    27   ar
    15    27    28   ar
    16    28    29   ar
    17    29    30   ar
    18    29    31    1
    19    31    32    1
    20    32    33    1
    21    33    34    1
    22     4     5    1
    23     7     8    1
    24     8     9   ar
    25     9    10   ar
    26    10    11   ar
    27    11    12   ar
    28    12    14    1
    29    14    15   ar
    30    15    16   ar
    31    16    17   ar
    32    17    18   ar
    33    12    13   ar
    34     5     1    1
    35    13     8   ar
    36    30    25   ar
    37    18    14   ar
    38    34    28    1
    39    31    35    1
@<TRIPOS>MOLECULE
*****
 35 39 0 0 0
SMALL
GASTEIGER

@<TRIPOS>ATOM
      1 N         143.5711  143.4772  163.3931 N.3     1  UNL1       -0.2724
      2 C         143.6823  144.8268  164.0384 C.3     1  UNL1        0.0721
      3 C         142.3910  145.5561  163.8135 C.3     1  UNL1        0.0187
      4 C         141.4816  144.6572  163.0291 C.3     1  UNL1        0.0178
      5 C         142.2110  143.3725  162.7693 C.3     1  UNL1        0.0721
      6 C         144.6334  142.4184  163.3748 C.3     1  UNL1        0.0768
      7 C         144.2501  140.9701  163.4484 C.3     1  UNL1        0.0439
      8 C         143.7501  140.3912  164.7388 C.ar    1  UNL1       -0.0193
      9 C         143.5561  138.9097  164.8709 C.ar    1  UNL1       -0.0041
     10 C         143.0561  138.3310  166.1612 C.ar    1  UNL1        0.0012
     11 C         142.7500  139.2337  167.3194 C.ar    1  UNL1        0.0192
     12 C         142.9440  140.7152  167.1873 C.ar    1  UNL1        0.0842
     13 C         143.4440  141.2940  165.8970 C.ar    1  UNL1        0.0150
     14 N         142.6379  141.6179  168.3455 N.ar    1  UNL1       -0.2089
     15 C         141.3258  141.7136  169.0661 C.ar    1  UNL1        0.1245
     16 C         141.4671  142.7383  170.1523 C.ar    1  UNL1        0.1445
     17 N         142.8666  143.2759  170.1031 N.ar    1  UNL1       -0.1268
     18 N         143.5902  142.5834  168.9864 N.ar    1  UNL1       -0.0595
     19 C         144.3669  140.1006  162.2317 C.3     1  UNL1        0.0474
     20 O         143.4668  140.2928  159.8020 O.co2   1  UNL1       -0.5492
     21 C         143.2294  140.0173  161.2574 C.2     1  UNL1        0.0507
     22 O         141.8547  139.6587  161.7384 O.co2   1  UNL1       -0.5492
     23 C         140.0877  144.9856  162.5829 C.3     1  UNL1        0.0077
     24 C         138.9130  144.3432  163.2591 C.3     1  UNL1        0.0459
     25 C         139.0471  142.9727  163.8539 C.ar    1  UNL1        0.0603
     26 C         139.3509  142.8153  165.3144 C.ar    1  UNL1        0.0145
     27 C         139.4850  141.4449  165.9091 C.ar    1  UNL1       -0.0003
     28 C         139.3153  140.2316  165.0434 C.ar    1  UNL1        0.0092
     29 C         139.0114  140.3890  163.5830 C.ar    1  UNL1        0.1240
     30 N         138.8774  141.7595  162.9882 N.ar    1  UNL1       -0.2356
     31 N         138.8417  139.1758  162.7173 N.pl3   1  UNL1       -0.3184
     32 C         138.9758  137.8054  163.3121 C.3     1  UNL1        0.0885
     33 C         139.2796  137.6480  164.7725 C.3     1  UNL1        0.0260
     34 C         139.4494  138.8612  165.6382 C.3     1  UNL1        0.0309
     35 H         138.6423  139.2791  161.7587 H       1  UNL1        0.1482
@<TRIPOS>UNITY_ATOM_ATTR
20 1
charge -1
@<TRIPOS>BOND
     1    20    21   ar
     2    21    22   ar
     3    21    19    1
     4     7    19    1
     5     7     6    1
     6     6     1    1
     7     1     2    1
     8     2     3    1
     9     3     4    1
    10     4    23    1
    11    23    24    1
    12    24    25    1
    13    25    26   ar
    14    26    27   ar
    15    27    28   ar
    16    28    29   ar
    17    29    30   ar
    18    29    31    1
    19    31    32    1
    20    32    33    1
    21    33    34    1
    22     4     5    1
    23     7     8    1
    24     8     9   ar
    25     9    10   ar
    26    10    11   ar
    27    11    12   ar
    28    12    14    1
    29    14    15   ar
    30    15    16   ar
    31    16    17   ar
    32    17    18   ar
    33    12    13   ar
    34     5     1    1
    35    13     8   ar
    36    30    25   ar
    37    18    14   ar
    38    34    28    1
    39    31    35    1
@<TRIPOS>MOLECULE
*****
 35 39 0 0 0
SMALL
GASTEIGER

@<TRIPOS>ATOM
      1 N         138.6807  139.2975  162.5437 N.3     1  UNL1       -0.2724
      2 C         139.0084  139.6623  161.1260 C.3     1  UNL1        0.0721
      3 C         138.6423  141.1025  160.9215 C.3     1  UNL1        0.0187
      4 C         138.0883  141.6278  162.2127 C.3     1  UNL1        0.0178
      5 C         138.1121  140.5123  163.2152 C.3     1  UNL1        0.0721
      6 C         138.8856  137.9539  163.1782 C.3     1  UNL1        0.0768
      7 C         139.3724  137.8594  164.5939 C.3     1  UNL1        0.0439
      8 C         140.7560  138.3216  164.9437 C.ar    1  UNL1       -0.0193
      9 C         141.8368  138.3076  163.9036 C.ar    1  UNL1       -0.0041
     10 C         143.2203  138.7697  164.2534 C.ar    1  UNL1        0.0012
     11 C         143.5230  139.2460  165.6433 C.ar    1  UNL1        0.0192
     12 C         142.4422  139.2600  166.6833 C.ar    1  UNL1        0.0842
     13 C         141.0587  138.7978  166.3335 C.ar    1  UNL1        0.0150
     14 N         142.7449  139.7362  168.0731 N.ar    1  UNL1       -0.2089
     15 C         142.8487  141.1668  168.5119 C.ar    1  UNL1        0.1245
     16 C         143.1649  141.1803  169.9781 C.ar    1  UNL1        0.1445
     17 N         143.2565  139.7579  170.4455 N.ar    1  UNL1       -0.1268
     18 N         142.9969  138.8654  169.2681 N.ar    1  UNL1       -0.0595
     19 C         138.4758  137.3028  165.6598 C.3     1  UNL1        0.0474
     20 O         137.8512  139.7155  166.3943 O.co2   1  UNL1       -0.5492
     21 C         137.7209  138.2308  166.5648 C.2     1  UNL1        0.0507
     22 O         136.8359  137.6742  167.6404 O.co2   1  UNL1       -0.5492
     23 C         137.5969  143.0236  162.4582 C.3     1  UNL1        0.0077
     24 C         138.2680  143.8848  163.4867 C.3     1  UNL1        0.0459
     25 C         139.6636  143.5674  163.9359 C.ar    1  UNL1        0.0603
     26 C         139.9230  143.1819  165.3621 C.ar    1  UNL1        0.0145
     27 C         141.3185  142.8645  165.8113 C.ar    1  UNL1       -0.0003
     28 C         142.4546  142.9325  164.8342 C.ar    1  UNL1        0.0092
     29 C         142.1952  143.3180  163.4080 C.ar    1  UNL1        0.1240
     30 N         140.7996  143.6355  162.9588 N.ar    1  UNL1       -0.2356
     31 N         143.3313  143.3861  162.4309 N.pl3   1  UNL1       -0.3184
     32 C         144.7268  143.0686  162.8801 C.3     1  UNL1        0.0885
     33 C         144.9862  142.6831  164.3063 C.3     1  UNL1        0.0260
     34 C         143.8501  142.6151  165.2833 C.3     1  UNL1        0.0309
     35 H         143.1610  143.6391  161.4948 H       1  UNL1        0.1482
@<TRIPOS>UNITY_ATOM_ATTR
20 1
charge -1
@<TRIPOS>BOND
     1    20    21   ar
     2    21    22   ar
     3    21    19    1
     4     7    19    1
     5     7     6    1
     6     6     1    1
     7     1     2    1
     8     2     3    1
     9     3     4    1
    10     4    23    1
    11    23    24    1
    12    24    25    1
    13    25    26   ar
    14    26    27   ar
    15    27    28   ar
    16    28    29   ar
    17    29    30   ar
    18    29    31    1
    19    31    32    1
    20    32    33    1
    21    33    34    1
    22     4     5    1
    23     7     8    1
    24     8     9   ar
    25     9    10   ar
    26    10    11   ar
    27    11    12   ar
    28    12    14    1
    29    14    15   ar
    30    15    16   ar
    31    16    17   ar
    32    17    18   ar
    33    12    13   ar
    34     5     1    1
    35    13     8   ar
    36    30    25   ar
    37    18    14   ar
    38    34    28    1
    39    31    35    1
