@<TRIPOS>MOLECULE
*****
 34 38 0 0 0
SMALL
GASTEIGER

@<TRIPOS>ATOM
      1 C         141.0281  139.8626  170.4618 C.3     1  UNL1        0.0646
      2 C         139.8524  140.4342  169.7263 C.3     1  UNL1        0.2068
      3 O         139.0734  139.5753  168.7747 O.3     1  UNL1       -0.4754
      4 C         138.9239  140.6263  164.4018 C.ar    1  UNL1       -0.0059
      5 C         138.2881  139.3587  164.8907 C.ar    1  UNL1        0.0002
      6 C         138.3379  139.0084  166.3483 C.ar    1  UNL1        0.0366
      7 C         139.0235  139.9257  167.3171 C.ar    1  UNL1        0.1385
      8 C         139.6593  141.1932  166.8282 C.ar    1  UNL1        0.0366
      9 C         139.6095  141.5436  165.3705 C.ar    1  UNL1        0.0002
     10 C         138.8740  140.9766  162.9441 C.3     1  UNL1        0.0992
     11 C         143.2421  139.1360  159.2655 C.3     1  UNL1        0.0897
     12 N         142.1501  139.5961  160.1851 N.3     1  UNL1       -0.2691
     13 C         142.0505  139.0330  161.5718 C.3     1  UNL1        0.0897
     14 C         140.9585  139.4932  162.4915 C.3     1  UNL1        0.0899
     15 N         139.9660  140.5164  162.0245 N.3     1  UNL1       -0.2665
     16 C         140.0656  141.0795  160.6377 C.3     1  UNL1        0.0899
     17 C         141.1576  140.6193  159.7181 C.3     1  UNL1        0.0897
     18 C         142.4225  140.2201  170.0402 C.3     1  UNL1        0.0759
     19 N         142.7142  140.5335  168.6026 N.3     1  UNL1       -0.2725
     20 C         142.9875  141.9476  168.1837 C.3     1  UNL1        0.0725
     21 C         143.2792  142.2610  166.7461 C.3     1  UNL1        0.0234
     22 C         143.2977  141.1601  165.7273 C.3     1  UNL1        0.0464
     23 C         143.0245  139.7460  166.1462 C.3     1  UNL1        0.0234
     24 C         142.7327  139.4327  167.5838 C.3     1  UNL1        0.0725
     25 C         143.5894  141.4734  164.2897 C.ar    1  UNL1        0.1003
     26 N         144.6255  140.8061  163.4346 N.ar    1  UNL1       -0.0814
     27 O         144.5727  141.4294  162.0712 O.2     1  UNL1       -0.3536
     28 C         143.5040  142.4819  162.0837 C.ar    1  UNL1        0.1787
     29 C         143.0057  143.4190  161.0238 C.ar    1  UNL1        0.0698
     30 C         141.8997  144.3833  161.3350 C.ar    1  UNL1        0.1433
     31 F         141.4014  145.3204  160.2750 F       1  UNL1       -0.2041
     32 C         141.2920  144.4105  162.7061 C.ar    1  UNL1        0.0299
     33 C         141.7903  143.4734  163.7660 C.ar    1  UNL1        0.0067
     34 C         142.8963  142.5091  163.4549 C.ar    1  UNL1        0.0540
@<TRIPOS>BOND
     1    11    12    1
     2    12    13    1
     3    13    14    1
     4    14    15    1
     5    15    10    1
     6    10     4    1
     7     4     5   ar
     8     5     6   ar
     9     6     7   ar
    10     7     3    1
    11     3     2    1
    12     2     1    1
    13     1    18    1
    14    18    19    1
    15    19    20    1
    16    20    21    1
    17    21    22    1
    18    22    25    1
    19    25    26   ar
    20    26    27   ar
    21    27    28   ar
    22    28    29   ar
    23    29    30   ar
    24    30    31    1
    25    30    32   ar
    26    32    33   ar
    27    33    34   ar
    28    22    23    1
    29    23    24    1
    30     7     8   ar
    31     8     9   ar
    32    15    16    1
    33    16    17    1
    34    17    12    1
    35     9     4   ar
    36    24    19    1
    37    34    25   ar
    38    34    28   ar
@<TRIPOS>MOLECULE
*****
 34 38 0 0 0
SMALL
GASTEIGER

@<TRIPOS>ATOM
      1 C         139.3495  141.5860  170.1864 C.3     1  UNL1        0.0646
      2 C         139.4360  140.1962  169.6287 C.3     1  UNL1        0.2068
      3 O         138.3519  139.6800  168.7297 O.3     1  UNL1       -0.4754
      4 C         139.3842  138.0627  164.6593 C.ar    1  UNL1       -0.0059
      5 C         138.2433  137.4723  165.4337 C.ar    1  UNL1        0.0002
      6 C         137.8992  138.0114  166.7905 C.ar    1  UNL1        0.0366
      7 C         138.6960  139.1409  167.3729 C.ar    1  UNL1        0.1385
      8 C         139.8370  139.7313  166.5985 C.ar    1  UNL1        0.0366
      9 C         140.1811  139.1921  165.2417 C.ar    1  UNL1        0.0002
     10 C         139.7283  137.5235  163.3025 C.3     1  UNL1        0.0992
     11 C         138.0992  140.5360  158.3760 C.3     1  UNL1        0.0897
     12 N         138.5064  139.7829  159.6076 N.3     1  UNL1       -0.2691
     13 C         139.8707  139.1651  159.6920 C.3     1  UNL1        0.0897
     14 C         140.2780  138.4120  160.9236 C.3     1  UNL1        0.0899
     15 N         139.3210  138.2766  162.0709 N.3     1  UNL1       -0.2665
     16 C         137.9568  138.8944  161.9863 C.3     1  UNL1        0.0899
     17 C         137.5495  139.6476  160.7547 C.3     1  UNL1        0.0897
     18 C         140.4492  142.5707  169.9200 C.3     1  UNL1        0.0759
     19 N         141.1114  142.6098  168.5747 N.3     1  UNL1       -0.2725
     20 C         140.3184  142.9883  167.3591 C.3     1  UNL1        0.0725
     21 C         140.9806  143.0274  166.0137 C.3     1  UNL1        0.0234
     22 C         142.4360  142.6879  165.8840 C.3     1  UNL1        0.0464
     23 C         143.2290  142.3094  167.0996 C.3     1  UNL1        0.0234
     24 C         142.5667  142.2703  168.4450 C.3     1  UNL1        0.0725
     25 C         143.0982  142.7270  164.5387 C.ar    1  UNL1        0.1003
     26 N         143.6229  143.9516  163.8495 N.ar    1  UNL1       -0.0814
     27 O         144.2010  143.5297  162.5312 O.2     1  UNL1       -0.3536
     28 C         144.0335  142.0443  162.4057 C.ar    1  UNL1        0.1787
     29 C         144.4136  141.0795  161.3219 C.ar    1  UNL1        0.0698
     30 C         144.1121  139.6185  161.4789 C.ar    1  UNL1        0.1433
     31 F         144.4922  138.6536  160.3951 F       1  UNL1       -0.2041
     32 C         143.4306  139.1224  162.7196 C.ar    1  UNL1        0.0299
     33 C         143.0505  140.0873  163.8033 C.ar    1  UNL1        0.0067
     34 C         143.3520  141.5482  163.6464 C.ar    1  UNL1        0.0540
@<TRIPOS>BOND
     1    11    12    1
     2    12    13    1
     3    13    14    1
     4    14    15    1
     5    15    10    1
     6    10     4    1
     7     4     5   ar
     8     5     6   ar
     9     6     7   ar
    10     7     3    1
    11     3     2    1
    12     2     1    1
    13     1    18    1
    14    18    19    1
    15    19    20    1
    16    20    21    1
    17    21    22    1
    18    22    25    1
    19    25    26   ar
    20    26    27   ar
    21    27    28   ar
    22    28    29   ar
    23    29    30   ar
    24    30    31    1
    25    30    32   ar
    26    32    33   ar
    27    33    34   ar
    28    22    23    1
    29    23    24    1
    30     7     8   ar
    31     8     9   ar
    32    15    16    1
    33    16    17    1
    34    17    12    1
    35     9     4   ar
    36    24    19    1
    37    34    25   ar
    38    34    28   ar
@<TRIPOS>MOLECULE
*****
 34 38 0 0 0
SMALL
GASTEIGER

@<TRIPOS>ATOM
      1 C         140.2025  145.2292  158.8623 C.3     1  UNL1        0.0646
      2 C         140.3859  145.7251  160.2660 C.3     1  UNL1        0.2068
      3 O         139.2964  145.5305  161.2785 O.3     1  UNL1       -0.4754
      4 C         140.2026  143.5192  165.2005 C.ar    1  UNL1       -0.0059
      5 C         138.7849  143.8455  164.8349 C.ar    1  UNL1        0.0002
      6 C         138.4828  144.5160  163.5276 C.ar    1  UNL1        0.0366
      7 C         139.5984  144.8600  162.5858 C.ar    1  UNL1        0.1385
      8 C         141.0161  144.5337  162.9514 C.ar    1  UNL1        0.0366
      9 C         141.3182  143.8633  164.2588 C.ar    1  UNL1        0.0002
     10 C         140.5046  142.8487  166.5080 C.3     1  UNL1        0.0992
     11 C         143.9200  137.9172  166.6318 C.3     1  UNL1        0.0897
     12 N         143.0661  139.1500  166.6009 N.3     1  UNL1       -0.2691
     13 C         142.7270  139.7947  165.2896 C.3     1  UNL1        0.0897
     14 C         141.8731  141.0275  165.2586 C.3     1  UNL1        0.0899
     15 N         141.3584  141.6158  166.5389 N.3     1  UNL1       -0.2665
     16 C         141.6976  140.9712  167.8502 C.3     1  UNL1        0.0899
     17 C         142.5515  139.7383  167.8811 C.3     1  UNL1        0.0897
     18 C         140.7616  143.8971  158.4585 C.3     1  UNL1        0.0759
     19 N         140.6203  142.7162  159.3725 N.3     1  UNL1       -0.2725
     20 C         141.8424  142.0062  159.8749 C.3     1  UNL1        0.0725
     21 C         141.7011  140.8253  160.7890 C.3     1  UNL1        0.0234
     22 C         140.3376  140.3543  161.2005 C.3     1  UNL1        0.0464
     23 C         139.1157  141.0642  160.6980 C.3     1  UNL1        0.0234
     24 C         139.2569  142.2452  159.7840 C.3     1  UNL1        0.0725
     25 C         140.1964  139.1733  162.1145 C.ar    1  UNL1        0.1003
     26 N         140.7617  137.8039  161.8796 N.ar    1  UNL1       -0.0814
     27 O         140.3796  136.9388  163.0438 O.2     1  UNL1       -0.3536
     28 C         139.5782  137.7734  163.9983 C.ar    1  UNL1        0.1787
     29 C         138.9370  137.4543  165.3163 C.ar    1  UNL1        0.0698
     30 C         138.1825  138.5162  166.0598 C.ar    1  UNL1        0.1433
     31 F         137.5412  138.1972  167.3778 F       1  UNL1       -0.2041
     32 C         138.0692  139.8973  165.4855 C.ar    1  UNL1        0.0299
     33 C         138.7105  140.2164  164.1676 C.ar    1  UNL1        0.0067
     34 C         139.4650  139.1545  163.4240 C.ar    1  UNL1        0.0540
@<TRIPOS>BOND
     1    11    12    1
     2    12    13    1
     3    13    14    1
     4    14    15    1
     5    15    10    1
     6    10     4    1
     7     4     5   ar
     8     5     6   ar
     9     6     7   ar
    10     7     3    1
    11     3     2    1
    12     2     1    1
    13     1    18    1
    14    18    19    1
    15    19    20    1
    16    20    21    1
    17    21    22    1
    18    22    25    1
    19    25    26   ar
    20    26    27   ar
    21    27    28   ar
    22    28    29   ar
    23    29    30   ar
    24    30    31    1
    25    30    32   ar
    26    32    33   ar
    27    33    34   ar
    28    22    23    1
    29    23    24    1
    30     7     8   ar
    31     8     9   ar
    32    15    16    1
    33    16    17    1
    34    17    12    1
    35     9     4   ar
    36    24    19    1
    37    34    25   ar
    38    34    28   ar
@<TRIPOS>MOLECULE
*****
 34 38 0 0 0
SMALL
GASTEIGER

@<TRIPOS>ATOM
      1 C         144.0895  140.4641  157.0036 C.3     1  UNL1        0.0646
      2 C         143.2374  139.2423  156.8266 C.3     1  UNL1        0.2068
      3 O         143.2863  138.1402  157.8429 O.3     1  UNL1       -0.4754
      4 C         140.4553  138.1780  161.3405 C.ar    1  UNL1       -0.0059
      5 C         139.9724  138.5864  159.9804 C.ar    1  UNL1        0.0002
      6 C         140.9161  138.5738  158.8145 C.ar    1  UNL1        0.0366
      7 C         142.3426  138.1528  159.0088 C.ar    1  UNL1        0.1385
      8 C         142.8254  137.7444  160.3690 C.ar    1  UNL1        0.0366
      9 C         141.8817  137.7570  161.5349 C.ar    1  UNL1        0.0002
     10 C         139.5115  138.1906  162.5064 C.3     1  UNL1        0.0992
     11 C         140.2910  142.1417  166.9541 C.3     1  UNL1        0.0897
     12 N         140.0961  141.1539  165.8422 N.3     1  UNL1       -0.2691
     13 C         138.8304  140.3527  165.7640 C.3     1  UNL1        0.0897
     14 C         138.6355  139.3650  164.6521 C.3     1  UNL1        0.0899
     15 N         139.7063  139.1783  163.6183 N.3     1  UNL1       -0.2665
     16 C         140.9720  139.9795  163.6966 C.3     1  UNL1        0.0899
     17 C         141.1669  140.9673  164.8085 C.3     1  UNL1        0.0897
     18 C         143.4485  141.7916  157.2810 C.3     1  UNL1        0.0759
     19 N         142.3662  141.9007  158.3138 N.3     1  UNL1       -0.2725
     20 C         140.9509  142.1636  157.8922 C.3     1  UNL1        0.0725
     21 C         139.8686  142.2727  158.9250 C.3     1  UNL1        0.0234
     22 C         140.2017  142.1189  160.3796 C.3     1  UNL1        0.0464
     23 C         141.6169  141.8561  160.8011 C.3     1  UNL1        0.0234
     24 C         142.6992  141.7469  159.7683 C.3     1  UNL1        0.0725
     25 C         139.1194  142.2281  161.4124 C.ar    1  UNL1        0.1003
     26 N         137.8456  141.4365  161.4418 N.ar    1  UNL1       -0.0814
     27 O         137.0599  141.8672  162.6447 O.2     1  UNL1       -0.3536
     28 C         137.8481  142.9249  163.3589 C.ar    1  UNL1        0.1787
     29 C         137.5712  143.7138  164.6042 C.ar    1  UNL1        0.0698
     30 C         138.5671  144.7257  165.0880 C.ar    1  UNL1        0.1433
     31 F         138.2902  145.5146  166.3334 F       1  UNL1       -0.2041
     32 C         139.8400  144.9487  164.3263 C.ar    1  UNL1        0.0299
     33 C         140.1169  144.1599  163.0810 C.ar    1  UNL1        0.0067
     34 C         139.1209  143.1480  162.5972 C.ar    1  UNL1        0.0540
@<TRIPOS>BOND
     1    11    12    1
     2    12    13    1
     3    13    14    1
     4    14    15    1
     5    15    10    1
     6    10     4    1
     7     4     5   ar
     8     5     6   ar
     9     6     7   ar
    10     7     3    1
    11     3     2    1
    12     2     1    1
    13     1    18    1
    14    18    19    1
    15    19    20    1
    16    20    21    1
    17    21    22    1
    18    22    25    1
    19    25    26   ar
    20    26    27   ar
    21    27    28   ar
    22    28    29   ar
    23    29    30   ar
    24    30    31    1
    25    30    32   ar
    26    32    33   ar
    27    33    34   ar
    28    22    23    1
    29    23    24    1
    30     7     8   ar
    31     8     9   ar
    32    15    16    1
    33    16    17    1
    34    17    12    1
    35     9     4   ar
    36    24    19    1
    37    34    25   ar
    38    34    28   ar
@<TRIPOS>MOLECULE
*****
 34 38 0 0 0
SMALL
GASTEIGER

@<TRIPOS>ATOM
      1 C         140.1935  144.8401  157.7528 C.3     1  UNL1        0.0646
      2 C         140.3525  145.3664  159.1485 C.3     1  UNL1        0.2068
      3 O         141.6703  145.2372  159.8531 O.3     1  UNL1       -0.4754
      4 C         142.3557  141.8550  162.7411 C.ar    1  UNL1       -0.0059
      5 C         141.1261  142.7057  162.8605 C.ar    1  UNL1        0.0002
      6 C         140.8976  143.8332  161.8978 C.ar    1  UNL1        0.0366
      7 C         141.8988  144.1098  160.8157 C.ar    1  UNL1        0.1385
      8 C         143.1284  143.2591  160.6963 C.ar    1  UNL1        0.0366
      9 C         143.3569  142.1316  161.6589 C.ar    1  UNL1        0.0002
     10 C         142.5841  140.7276  163.7038 C.3     1  UNL1        0.0992
     11 C         142.6031  141.7838  169.6101 C.3     1  UNL1        0.0897
     12 N         142.5983  141.5198  168.1335 N.3     1  UNL1       -0.2691
     13 C         143.3681  142.4157  167.2090 C.3     1  UNL1        0.0897
     14 C         143.3633  142.1517  165.7324 C.3     1  UNL1        0.0899
     15 N         142.5888  140.9917  165.1804 N.3     1  UNL1       -0.2665
     16 C         141.8191  140.0958  166.1050 C.3     1  UNL1        0.0899
     17 C         141.8239  140.3599  167.5815 C.3     1  UNL1        0.0897
     18 C         139.4854  143.5387  157.5182 C.3     1  UNL1        0.0759
     19 N         139.5628  142.4471  158.5441 N.3     1  UNL1       -0.2725
     20 C         140.7254  141.4993  158.5443 C.3     1  UNL1        0.0725
     21 C         140.8029  140.4077  159.5702 C.3     1  UNL1        0.0234
     22 C         139.7177  140.2639  160.5958 C.3     1  UNL1        0.0464
     23 C         138.5552  141.2117  160.5955 C.3     1  UNL1        0.0234
     24 C         138.4778  142.3033  159.5697 C.3     1  UNL1        0.0725
     25 C         139.7952  139.1723  161.6217 C.ar    1  UNL1        0.1003
     26 N         140.4307  137.8270  161.4313 N.ar    1  UNL1       -0.0814
     27 O         140.2791  137.0576  162.7100 O.2     1  UNL1       -0.3536
     28 C         139.5498  137.9274  163.6907 C.ar    1  UNL1        0.1787
     29 C         139.1194  137.6982  165.1092 C.ar    1  UNL1        0.0698
     30 C         138.3900  138.7760  165.8550 C.ar    1  UNL1        0.1433
     31 F         137.9596  138.5468  167.2736 F       1  UNL1       -0.2041
     32 C         138.0910  140.0829  165.1824 C.ar    1  UNL1        0.0299
     33 C         138.5214  140.3121  163.7639 C.ar    1  UNL1        0.0067
     34 C         139.2508  139.2344  163.0180 C.ar    1  UNL1        0.0540
@<TRIPOS>BOND
     1    11    12    1
     2    12    13    1
     3    13    14    1
     4    14    15    1
     5    15    10    1
     6    10     4    1
     7     4     5   ar
     8     5     6   ar
     9     6     7   ar
    10     7     3    1
    11     3     2    1
    12     2     1    1
    13     1    18    1
    14    18    19    1
    15    19    20    1
    16    20    21    1
    17    21    22    1
    18    22    25    1
    19    25    26   ar
    20    26    27   ar
    21    27    28   ar
    22    28    29   ar
    23    29    30   ar
    24    30    31    1
    25    30    32   ar
    26    32    33   ar
    27    33    34   ar
    28    22    23    1
    29    23    24    1
    30     7     8   ar
    31     8     9   ar
    32    15    16    1
    33    16    17    1
    34    17    12    1
    35     9     4   ar
    36    24    19    1
    37    34    25   ar
    38    34    28   ar
@<TRIPOS>MOLECULE
*****
 34 38 0 0 0
SMALL
GASTEIGER

@<TRIPOS>ATOM
      1 C         140.9163  145.3908  160.1061 C.3     1  UNL1        0.0646
      2 C         140.2396  145.0289  158.8172 C.3     1  UNL1        0.2068
      3 O         139.2138  143.9349  158.7902 O.3     1  UNL1       -0.4754
      4 C         140.1424  139.9341  160.6290 C.ar    1  UNL1       -0.0059
      5 C         141.0343  140.4936  159.5606 C.ar    1  UNL1        0.0002
      6 C         140.7247  141.8273  158.9477 C.ar    1  UNL1        0.0366
      7 C         139.5233  142.6012  159.4032 C.ar    1  UNL1        0.1385
      8 C         138.6315  142.0417  160.4716 C.ar    1  UNL1        0.0366
      9 C         138.9410  140.7081  161.0845 C.ar    1  UNL1        0.0002
     10 C         140.4520  138.6005  161.2419 C.3     1  UNL1        0.0992
     11 C         143.6211  138.2995  166.3278 C.3     1  UNL1        0.0897
     12 N         142.8288  138.3748  165.0564 N.3     1  UNL1       -0.2691
     13 C         141.5624  137.5836  164.9139 C.3     1  UNL1        0.0897
     14 C         140.7701  137.6588  163.6425 C.3     1  UNL1        0.0899
     15 N         141.2442  138.5252  162.5134 N.3     1  UNL1       -0.2665
     16 C         142.5107  139.3163  162.6559 C.3     1  UNL1        0.0899
     17 C         143.3029  139.2411  163.9274 C.3     1  UNL1        0.0897
     18 C         140.1006  145.6092  161.3459 C.3     1  UNL1        0.0759
     19 N         140.0964  144.5754  162.4327 N.3     1  UNL1       -0.2725
     20 C         138.9382  144.4898  163.3819 C.3     1  UNL1        0.0725
     21 C         138.9340  143.4560  164.4687 C.3     1  UNL1        0.0234
     22 C         140.0881  142.5077  164.6063 C.3     1  UNL1        0.0464
     23 C         141.2463  142.5933  163.6571 C.3     1  UNL1        0.0234
     24 C         141.2505  143.6271  162.5702 C.3     1  UNL1        0.0725
     25 C         140.0839  141.4738  165.6931 C.ar    1  UNL1        0.1003
     26 N         139.1052  140.3457  165.8331 N.ar    1  UNL1       -0.0814
     27 O         139.4742  139.5613  167.0573 O.2     1  UNL1       -0.3536
     28 C         140.6808  140.2046  167.6739 C.ar    1  UNL1        0.1787
     29 C         141.4851  139.8668  168.8941 C.ar    1  UNL1        0.0698
     30 C         142.6662  140.7109  169.2712 C.ar    1  UNL1        0.1433
     31 F         143.4706  140.3731  170.4914 F       1  UNL1       -0.2041
     32 C         143.0431  141.8930  168.4281 C.ar    1  UNL1        0.0299
     33 C         142.2388  142.2308  167.2079 C.ar    1  UNL1        0.0067
     34 C         141.0577  141.3866  166.8308 C.ar    1  UNL1        0.0540
@<TRIPOS>BOND
     1    11    12    1
     2    12    13    1
     3    13    14    1
     4    14    15    1
     5    15    10    1
     6    10     4    1
     7     4     5   ar
     8     5     6   ar
     9     6     7   ar
    10     7     3    1
    11     3     2    1
    12     2     1    1
    13     1    18    1
    14    18    19    1
    15    19    20    1
    16    20    21    1
    17    21    22    1
    18    22    25    1
    19    25    26   ar
    20    26    27   ar
    21    27    28   ar
    22    28    29   ar
    23    29    30   ar
    24    30    31    1
    25    30    32   ar
    26    32    33   ar
    27    33    34   ar
    28    22    23    1
    29    23    24    1
    30     7     8   ar
    31     8     9   ar
    32    15    16    1
    33    16    17    1
    34    17    12    1
    35     9     4   ar
    36    24    19    1
    37    34    25   ar
    38    34    28   ar
@<TRIPOS>MOLECULE
*****
 34 38 0 0 0
SMALL
GASTEIGER

@<TRIPOS>ATOM
      1 C         140.1183  141.5224  170.0527 C.3     1  UNL1        0.0646
      2 C         140.0294  140.1163  169.5379 C.3     1  UNL1        0.2068
      3 O         138.9446  139.7379  168.5736 O.3     1  UNL1       -0.4754
      4 C         139.9699  138.7661  164.3012 C.ar    1  UNL1       -0.0059
      5 C         138.5396  138.7451  164.7526 C.ar    1  UNL1        0.0002
      6 C         138.1978  139.0691  166.1768 C.ar    1  UNL1        0.0366
      7 C         139.2864  139.4140  167.1495 C.ar    1  UNL1        0.1385
      8 C         140.7167  139.4349  166.6980 C.ar    1  UNL1        0.0366
      9 C         141.0585  139.1110  165.2739 C.ar    1  UNL1        0.0002
     10 C         140.3117  138.4422  162.8770 C.3     1  UNL1        0.0992
     11 C         138.2436  141.9039  158.4340 C.3     1  UNL1        0.0897
     12 N         138.7606  141.0385  159.5448 N.3     1  UNL1       -0.2691
     13 C         138.8846  139.5569  159.3455 C.3     1  UNL1        0.0897
     14 C         139.4016  138.6915  160.4562 C.3     1  UNL1        0.0899
     15 N         139.7946  139.3076  161.7663 N.3     1  UNL1       -0.2665
     16 C         139.6706  140.7891  161.9654 C.3     1  UNL1        0.0899
     17 C         139.1536  141.6545  160.8547 C.3     1  UNL1        0.0897
     18 C         141.2136  142.4285  169.5739 C.3     1  UNL1        0.0759
     19 N         141.4873  142.5632  168.1053 N.3     1  UNL1       -0.2725
     20 C         140.3809  142.9478  167.1683 C.3     1  UNL1        0.0725
     21 C         140.6547  143.0824  165.6996 C.3     1  UNL1        0.0234
     22 C         142.0349  142.8324  165.1679 C.3     1  UNL1        0.0464
     23 C         143.1412  142.4478  166.1049 C.3     1  UNL1        0.0234
     24 C         142.8675  142.3132  167.5736 C.3     1  UNL1        0.0725
     25 C         142.3086  142.9670  163.6993 C.ar    1  UNL1        0.1003
     26 N         143.3740  142.2427  162.9310 N.ar    1  UNL1       -0.0814
     27 O         143.2888  142.6776  161.4980 O.2     1  UNL1       -0.3536
     28 C         142.1708  143.6708  161.3806 C.ar    1  UNL1        0.1787
     29 C         141.6262  144.4353  160.2107 C.ar    1  UNL1        0.0698
     30 C         140.4757  145.3787  160.4013 C.ar    1  UNL1        0.1433
     31 F         139.9310  146.1433  159.2313 F       1  UNL1       -0.2041
     32 C         139.8699  145.5576  161.7618 C.ar    1  UNL1        0.0299
     33 C         140.4146  144.7930  162.9317 C.ar    1  UNL1        0.0067
     34 C         141.5650  143.8496  162.7411 C.ar    1  UNL1        0.0540
@<TRIPOS>BOND
     1    11    12    1
     2    12    13    1
     3    13    14    1
     4    14    15    1
     5    15    10    1
     6    10     4    1
     7     4     5   ar
     8     5     6   ar
     9     6     7   ar
    10     7     3    1
    11     3     2    1
    12     2     1    1
    13     1    18    1
    14    18    19    1
    15    19    20    1
    16    20    21    1
    17    21    22    1
    18    22    25    1
    19    25    26   ar
    20    26    27   ar
    21    27    28   ar
    22    28    29   ar
    23    29    30   ar
    24    30    31    1
    25    30    32   ar
    26    32    33   ar
    27    33    34   ar
    28    22    23    1
    29    23    24    1
    30     7     8   ar
    31     8     9   ar
    32    15    16    1
    33    16    17    1
    34    17    12    1
    35     9     4   ar
    36    24    19    1
    37    34    25   ar
    38    34    28   ar
@<TRIPOS>MOLECULE
*****
 34 38 0 0 0
SMALL
GASTEIGER

@<TRIPOS>ATOM
      1 C         140.0251  145.4026  159.0849 C.3     1  UNL1        0.0646
      2 C         140.3551  145.8223  160.4867 C.3     1  UNL1        0.2068
      3 O         139.2935  145.7988  161.5461 O.3     1  UNL1       -0.4754
      4 C         139.0695  142.3524  164.4308 C.ar    1  UNL1       -0.0059
      5 C         140.3957  142.7818  163.8769 C.ar    1  UNL1        0.0002
      6 C         140.4704  143.9307  162.9153 C.ar    1  UNL1        0.0366
      7 C         139.2189  144.6500  162.5077 C.ar    1  UNL1        0.1385
      8 C         137.8927  144.2205  163.0616 C.ar    1  UNL1        0.0366
      9 C         137.8180  143.0717  164.0231 C.ar    1  UNL1        0.0002
     10 C         138.9949  141.2035  165.3923 C.3     1  UNL1        0.0992
     11 C         142.1099  141.3743  170.5176 C.3     1  UNL1        0.0897
     12 N         141.3311  141.3316  169.2363 N.3     1  UNL1       -0.2691
     13 C         141.1875  142.5714  168.4044 C.3     1  UNL1        0.0897
     14 C         140.4087  142.5287  167.1231 C.3     1  UNL1        0.0899
     15 N         139.7737  141.2462  166.6736 N.3     1  UNL1       -0.2665
     16 C         139.9174  140.0064  167.5056 C.3     1  UNL1        0.0899
     17 C         140.6961  140.0491  168.7869 C.3     1  UNL1        0.0897
     18 C         140.5982  144.1334  158.5275 C.3     1  UNL1        0.0759
     19 N         140.7195  142.9189  159.3995 N.3     1  UNL1       -0.2725
     20 C         139.4870  142.1889  159.8445 C.3     1  UNL1        0.0725
     21 C         139.6084  140.9744  160.7165 C.3     1  UNL1        0.0234
     22 C         140.9623  140.4899  161.1435 C.3     1  UNL1        0.0464
     23 C         142.1947  141.2199  160.6984 C.3     1  UNL1        0.0234
     24 C         142.0734  142.4344  159.8265 C.3     1  UNL1        0.0725
     25 C         141.0837  139.2754  162.0154 C.ar    1  UNL1        0.1003
     26 N         140.5322  137.9138  161.7124 N.ar    1  UNL1       -0.0814
     27 O         140.8855  137.0062  162.8532 O.2     1  UNL1       -0.3536
     28 C         141.6554  137.8069  163.8613 C.ar    1  UNL1        0.1787
     29 C         142.2607  137.4402  165.1838 C.ar    1  UNL1        0.0698
     30 C         142.9885  138.4759  165.9885 C.ar    1  UNL1        0.1433
     31 F         143.5938  138.1092  167.3111 F       1  UNL1       -0.2041
     32 C         143.1109  139.8784  165.4707 C.ar    1  UNL1        0.0299
     33 C         142.5056  140.2451  164.1482 C.ar    1  UNL1        0.0067
     34 C         141.7779  139.2094  163.3435 C.ar    1  UNL1        0.0540
@<TRIPOS>BOND
     1    11    12    1
     2    12    13    1
     3    13    14    1
     4    14    15    1
     5    15    10    1
     6    10     4    1
     7     4     5   ar
     8     5     6   ar
     9     6     7   ar
    10     7     3    1
    11     3     2    1
    12     2     1    1
    13     1    18    1
    14    18    19    1
    15    19    20    1
    16    20    21    1
    17    21    22    1
    18    22    25    1
    19    25    26   ar
    20    26    27   ar
    21    27    28   ar
    22    28    29   ar
    23    29    30   ar
    24    30    31    1
    25    30    32   ar
    26    32    33   ar
    27    33    34   ar
    28    22    23    1
    29    23    24    1
    30     7     8   ar
    31     8     9   ar
    32    15    16    1
    33    16    17    1
    34    17    12    1
    35     9     4   ar
    36    24    19    1
    37    34    25   ar
    38    34    28   ar
@<TRIPOS>MOLECULE
*****
 34 38 0 0 0
SMALL
GASTEIGER

@<TRIPOS>ATOM
      1 C         142.8724  140.0230  167.9213 C.3     1  UNL1        0.0646
      2 C         141.8707  140.0284  169.0378 C.3     1  UNL1        0.2068
      3 O         140.5647  140.7469  168.8700 O.3     1  UNL1       -0.4754
      4 C         138.4441  140.6631  164.9019 C.ar    1  UNL1       -0.0059
      5 C         139.3079  141.8341  165.2661 C.ar    1  UNL1        0.0002
      6 C         140.0148  141.8620  166.5888 C.ar    1  UNL1        0.0366
      7 C         139.8578  140.7190  167.5473 C.ar    1  UNL1        0.1385
      8 C         138.9940  139.5480  167.1831 C.ar    1  UNL1        0.0366
      9 C         138.2871  139.5201  165.8604 C.ar    1  UNL1        0.0002
     10 C         137.7373  140.6353  163.5792 C.3     1  UNL1        0.0992
     11 C         140.5590  138.5462  158.7136 C.3     1  UNL1        0.0897
     12 N         139.8536  139.0685  159.9299 N.3     1  UNL1       -0.2691
     13 C         139.2459  138.1122  160.9130 C.3     1  UNL1        0.0897
     14 C         138.5405  138.6345  162.1293 C.3     1  UNL1        0.0899
     15 N         138.4427  140.1130  162.3628 N.3     1  UNL1       -0.2665
     16 C         139.0504  141.0692  161.3798 C.3     1  UNL1        0.0899
     17 C         139.7558  140.5470  160.1634 C.3     1  UNL1        0.0897
     18 C         142.9174  138.8726  166.9597 C.3     1  UNL1        0.0759
     19 N         143.0794  139.1290  165.4906 N.3     1  UNL1       -0.2725
     20 C         144.4423  139.3888  164.9205 C.3     1  UNL1        0.0725
     21 C         144.6044  139.6451  163.4515 C.3     1  UNL1        0.0234
     22 C         143.4034  139.6417  162.5525 C.3     1  UNL1        0.0464
     23 C         142.0407  139.3819  163.1227 C.3     1  UNL1        0.0234
     24 C         141.8786  139.1255  164.5918 C.3     1  UNL1        0.0725
     25 C         143.5655  139.8980  161.0835 C.ar    1  UNL1        0.1003
     26 N         144.0267  138.9027  160.0604 N.ar    1  UNL1       -0.0814
     27 O         144.0410  139.5842  158.7243 O.2     1  UNL1       -0.3536
     28 C         143.5887  141.0008  158.9216 C.ar    1  UNL1        0.1787
     29 C         143.4065  142.1391  157.9619 C.ar    1  UNL1        0.0698
     30 C         142.9304  143.4713  158.4604 C.ar    1  UNL1        0.1433
     31 F         142.7481  144.6097  157.5007 F       1  UNL1       -0.2041
     32 C         142.6365  143.6652  159.9184 C.ar    1  UNL1        0.0299
     33 C         142.8187  142.5269  160.8781 C.ar    1  UNL1        0.0067
     34 C         143.2948  141.1947  160.3797 C.ar    1  UNL1        0.0540
@<TRIPOS>BOND
     1    11    12    1
     2    12    13    1
     3    13    14    1
     4    14    15    1
     5    15    10    1
     6    10     4    1
     7     4     5   ar
     8     5     6   ar
     9     6     7   ar
    10     7     3    1
    11     3     2    1
    12     2     1    1
    13     1    18    1
    14    18    19    1
    15    19    20    1
    16    20    21    1
    17    21    22    1
    18    22    25    1
    19    25    26   ar
    20    26    27   ar
    21    27    28   ar
    22    28    29   ar
    23    29    30   ar
    24    30    31    1
    25    30    32   ar
    26    32    33   ar
    27    33    34   ar
    28    22    23    1
    29    23    24    1
    30     7     8   ar
    31     8     9   ar
    32    15    16    1
    33    16    17    1
    34    17    12    1
    35     9     4   ar
    36    24    19    1
    37    34    25   ar
    38    34    28   ar
