@<TRIPOS>MOLECULE
*****
 33 36 0 0 0
SMALL
GASTEIGER

@<TRIPOS>ATOM
      1 C         142.2003  140.0474  164.1927 C.2     1  UNL1        0.1397
      2 C         142.6656  140.3076  162.7906 C.2     1  UNL1        0.1355
      3 N         142.2038  141.5353  162.0628 N.pl3   1  UNL1       -0.2002
      4 C         141.2768  142.5027  162.7371 C.2     1  UNL1        0.3379
      5 N         140.8115  142.2425  164.1392 N.2     1  UNL1       -0.0585
      6 C         141.2733  141.0148  164.8669 C.3     1  UNL1        0.2691
      7 H         142.5092  141.7061  161.1426 H       1  UNL1        0.2983
      8 C         140.8080  140.7546  166.2691 C.ar    1  UNL1        0.0371
      9 C         139.5426  139.9856  166.5088 C.ar    1  UNL1        0.0030
     10 C         139.0773  139.7254  167.9108 C.ar    1  UNL1        0.0295
     11 C         139.8774  140.2342  169.0732 C.ar    1  UNL1        0.1406
     12 F         139.4121  139.9740  170.4752 F       1  UNL1       -0.2042
     13 C         141.1428  141.0032  168.8335 C.ar    1  UNL1        0.0362
     14 C         141.6081  141.2634  167.4313 C.ar    1  UNL1        0.0372
     15 BR        142.8735  142.0324  167.1916 Br      1  UNL1       -0.0491
     16 C         140.8150  143.7303  162.0093 C.ar    1  UNL1        0.1630
     17 C         140.2852  144.9037  162.7790 C.ar    1  UNL1        0.0267
     18 C         139.8234  146.1314  162.0512 C.ar    1  UNL1        0.0034
     19 C         139.8915  146.1856  160.5538 C.ar    1  UNL1        0.0207
     20 C         140.4213  145.0123  159.7841 C.ar    1  UNL1        0.0991
     21 N         140.8831  143.7846  160.5119 N.ar    1  UNL1       -0.2364
     22 C         142.6621  138.8198  164.9204 C.2     1  UNL1        0.3447
     23 O         143.9950  138.8126  165.6084 O.2     1  UNL1       -0.2450
     24 O         141.7910  137.5993  164.9602 O.3     1  UNL1       -0.4455
     25 C         139.5417  137.5797  163.6600 C.3     1  UNL1        0.0513
     26 C         140.9921  137.2083  163.7524 C.3     1  UNL1        0.2089
     27 C         143.5926  139.3402  162.1163 C.3     1  UNL1        0.1405
     28 N         143.4628  139.0784  160.6450 N.3     1  UNL1       -0.2617
     29 C         143.9203  140.1096  159.6565 C.3     1  UNL1        0.1050
     30 C         143.7904  139.8477  158.1852 C.3     1  UNL1        0.1595
     31 O         143.2030  138.5547  157.7025 O.3     1  UNL1       -0.3508
     32 C         142.7455  137.5234  158.6911 C.3     1  UNL1        0.1595
     33 C         142.8754  137.7853  160.1623 C.3     1  UNL1        0.1050
@<TRIPOS>BOND
     1    25    26    1
     2    26    24    1
     3    24    22    1
     4    22    23    2
     5    22     1    1
     6     1     2    2
     7     2    27    1
     8    27    28    1
     9    28    29    1
    10    29    30    1
    11    30    31    1
    12    31    32    1
    13    32    33    1
    14     2     3    1
    15     3     4    1
    16     4    16    1
    17    16    17   ar
    18    17    18   ar
    19    18    19   ar
    20    19    20   ar
    21    20    21   ar
    22     4     5    2
    23     5     6    1
    24     6     8    1
    25     8     9   ar
    26     9    10   ar
    27    10    11   ar
    28    11    12    1
    29    11    13   ar
    30    13    14   ar
    31    14    15    1
    32     6     1    1
    33    14     8   ar
    34    33    28    1
    35    21    16   ar
    36     3     7    1
@<TRIPOS>MOLECULE
*****
 33 36 0 0 0
SMALL
GASTEIGER

@<TRIPOS>ATOM
      1 C         139.9177  141.3113  161.0112 C.2     1  UNL1        0.1397
      2 C         140.1140  140.6152  159.6971 C.2     1  UNL1        0.1355
      3 N         139.6373  141.2589  158.4288 N.pl3   1  UNL1       -0.2002
      4 C         138.9644  142.5986  158.4746 C.2     1  UNL1        0.3379
      5 N         138.7681  143.2947  159.7887 N.2     1  UNL1       -0.0585
      6 C         139.2447  142.6511  161.0569 C.3     1  UNL1        0.2691
      7 H         139.7662  140.8019  157.5663 H       1  UNL1        0.2983
      8 C         139.0484  143.3473  162.3711 C.ar    1  UNL1        0.0371
      9 C         137.7842  143.1360  163.1502 C.ar    1  UNL1        0.0030
     10 C         137.5878  143.8322  164.4642 C.ar    1  UNL1        0.0295
     11 C         138.6557  144.7396  164.9992 C.ar    1  UNL1        0.1406
     12 F         138.4594  145.4358  166.3133 F       1  UNL1       -0.2042
     13 C         139.9200  144.9509  164.2201 C.ar    1  UNL1        0.0362
     14 C         140.1163  144.2547  162.9060 C.ar    1  UNL1        0.0372
     15 BR        141.3806  144.4659  162.1269 Br      1  UNL1       -0.0491
     16 C         138.4878  143.2423  157.2063 C.ar    1  UNL1        0.1630
     17 C         137.2068  142.7894  156.5708 C.ar    1  UNL1        0.0267
     18 C         136.7302  143.4330  155.3025 C.ar    1  UNL1        0.0034
     19 C         137.5346  144.5296  154.6697 C.ar    1  UNL1        0.0207
     20 C         138.8156  144.9825  155.3052 C.ar    1  UNL1        0.0991
     21 N         139.2922  144.3388  156.5735 N.ar    1  UNL1       -0.2364
     22 C         140.3943  140.6677  162.2794 C.2     1  UNL1        0.3447
     23 O         141.8237  140.8213  162.7073 O.2     1  UNL1       -0.2450
     24 O         139.4415  139.8704  163.1199 O.3     1  UNL1       -0.4455
     25 C         137.9802  138.1294  161.8613 C.3     1  UNL1        0.0513
     26 C         138.1155  139.4511  162.5576 C.3     1  UNL1        0.2089
     27 C         140.7869  139.2753  159.6512 C.3     1  UNL1        0.1405
     28 N         141.0625  138.6193  158.3308 N.3     1  UNL1       -0.2617
     29 C         139.9622  137.9036  157.6047 C.3     1  UNL1        0.1050
     30 C         140.2378  137.2475  156.2842 C.3     1  UNL1        0.1595
     31 O         141.6137  137.3071  155.6899 O.3     1  UNL1       -0.3508
     32 C         142.7141  138.0227  156.4160 C.3     1  UNL1        0.1595
     33 C         142.4385  138.6788  157.7364 C.3     1  UNL1        0.1050
@<TRIPOS>BOND
     1    25    26    1
     2    26    24    1
     3    24    22    1
     4    22    23    2
     5    22     1    1
     6     1     2    2
     7     2    27    1
     8    27    28    1
     9    28    29    1
    10    29    30    1
    11    30    31    1
    12    31    32    1
    13    32    33    1
    14     2     3    1
    15     3     4    1
    16     4    16    1
    17    16    17   ar
    18    17    18   ar
    19    18    19   ar
    20    19    20   ar
    21    20    21   ar
    22     4     5    2
    23     5     6    1
    24     6     8    1
    25     8     9   ar
    26     9    10   ar
    27    10    11   ar
    28    11    12    1
    29    11    13   ar
    30    13    14   ar
    31    14    15    1
    32     6     1    1
    33    14     8   ar
    34    33    28    1
    35    21    16   ar
    36     3     7    1
@<TRIPOS>MOLECULE
*****
 33 36 0 0 0
SMALL
GASTEIGER

@<TRIPOS>ATOM
      1 C         142.1552  143.2337  160.4076 C.2     1  UNL1        0.1397
      2 C         143.0720  143.1986  159.2209 C.2     1  UNL1        0.1355
      3 N         142.7150  143.9534  157.9748 N.pl3   1  UNL1       -0.2002
      4 C         141.4412  144.7432  157.9153 C.2     1  UNL1        0.3379
      5 N         140.5245  144.7783  159.1020 N.2     1  UNL1       -0.0585
      6 C         140.8815  144.0235  160.3481 C.3     1  UNL1        0.2691
      7 H         143.3167  143.9303  157.1959 H       1  UNL1        0.2983
      8 C         139.9646  144.0586  161.5348 C.ar    1  UNL1        0.0371
      9 C         140.2155  145.0324  162.6478 C.ar    1  UNL1        0.0030
     10 C         139.2987  145.0675  163.8345 C.ar    1  UNL1        0.0295
     11 C         138.1310  144.1288  163.9082 C.ar    1  UNL1        0.1406
     12 F         137.2142  144.1640  165.0949 F       1  UNL1       -0.2042
     13 C         137.8801  143.1550  162.7952 C.ar    1  UNL1        0.0362
     14 C         138.7970  143.1199  161.6085 C.ar    1  UNL1        0.0372
     15 BR        138.5461  142.1461  160.4955 Br      1  UNL1       -0.0491
     16 C         141.0842  145.4980  156.6692 C.ar    1  UNL1        0.1630
     17 C         141.8056  145.2109  155.3858 C.ar    1  UNL1        0.0267
     18 C         141.4486  145.9657  154.1397 C.ar    1  UNL1        0.0034
     19 C         140.3702  147.0075  154.1769 C.ar    1  UNL1        0.0207
     20 C         139.6488  147.2946  155.4602 C.ar    1  UNL1        0.0991
     21 N         140.0058  146.5399  156.7064 N.ar    1  UNL1       -0.2364
     22 C         142.5122  142.4789  161.6537 C.2     1  UNL1        0.3447
     23 O         141.7845  141.2134  161.9985 O.2     1  UNL1       -0.2450
     24 O         143.5970  142.9896  162.5550 O.3     1  UNL1       -0.4455
     25 C         143.6227  145.1486  164.0001 C.3     1  UNL1        0.0513
     26 C         143.8342  144.4653  162.6816 C.3     1  UNL1        0.2089
     27 C         144.3459  142.4087  159.2803 C.3     1  UNL1        0.1405
     28 N         144.9907  141.9292  158.0138 N.3     1  UNL1       -0.2617
     29 C         144.4228  140.7486  157.2833 C.3     1  UNL1        0.1050
     30 C         145.0677  140.2690  156.0168 C.3     1  UNL1        0.1595
     31 O         146.2806  140.9700  155.4807 O.3     1  UNL1       -0.3508
     32 C         146.8486  142.1506  156.2112 C.3     1  UNL1        0.1595
     33 C         146.2037  142.6302  157.4777 C.3     1  UNL1        0.1050
@<TRIPOS>BOND
     1    25    26    1
     2    26    24    1
     3    24    22    1
     4    22    23    2
     5    22     1    1
     6     1     2    2
     7     2    27    1
     8    27    28    1
     9    28    29    1
    10    29    30    1
    11    30    31    1
    12    31    32    1
    13    32    33    1
    14     2     3    1
    15     3     4    1
    16     4    16    1
    17    16    17   ar
    18    17    18   ar
    19    18    19   ar
    20    19    20   ar
    21    20    21   ar
    22     4     5    2
    23     5     6    1
    24     6     8    1
    25     8     9   ar
    26     9    10   ar
    27    10    11   ar
    28    11    12    1
    29    11    13   ar
    30    13    14   ar
    31    14    15    1
    32     6     1    1
    33    14     8   ar
    34    33    28    1
    35    21    16   ar
    36     3     7    1
@<TRIPOS>MOLECULE
*****
 33 36 0 0 0
SMALL
GASTEIGER

@<TRIPOS>ATOM
      1 C         142.2533  140.5234  161.2715 C.2     1  UNL1        0.1397
      2 C         143.0364  141.0953  160.1271 C.2     1  UNL1        0.1355
      3 N         143.3227  140.2532  158.9192 N.pl3   1  UNL1       -0.2002
      4 C         142.8260  138.8393  158.8558 C.2     1  UNL1        0.3379
      5 N         142.0429  138.2674  160.0003 N.2     1  UNL1       -0.0585
      6 C         141.7566  139.1095  161.2081 C.3     1  UNL1        0.2691
      7 H         143.8366  140.6285  158.1681 H       1  UNL1        0.2983
      8 C         140.9735  138.5376  162.3526 C.ar    1  UNL1        0.0371
      9 C         141.6880  137.8794  163.4955 C.ar    1  UNL1        0.0030
     10 C         140.9050  137.3075  164.6400 C.ar    1  UNL1        0.0295
     11 C         139.4074  137.3938  164.6415 C.ar    1  UNL1        0.1406
     12 F         138.6244  136.8220  165.7860 F       1  UNL1       -0.2042
     13 C         138.6929  138.0521  163.4986 C.ar    1  UNL1        0.0362
     14 C         139.4760  138.6240  162.3541 C.ar    1  UNL1        0.0372
     15 BR        138.7616  139.2822  161.2112 Br      1  UNL1       -0.0491
     16 C         143.1123  137.9972  157.6479 C.ar    1  UNL1        0.1630
     17 C         142.6756  136.5626  157.6132 C.ar    1  UNL1        0.0267
     18 C         142.9620  135.7205  156.4054 C.ar    1  UNL1        0.0034
     19 C         143.6849  136.3130  155.2322 C.ar    1  UNL1        0.0207
     20 C         144.1215  137.7476  155.2670 C.ar    1  UNL1        0.0991
     21 N         143.8352  138.5897  156.4748 N.ar    1  UNL1       -0.2364
     22 C         141.9670  141.3655  162.4794 C.2     1  UNL1        0.3447
     23 O         140.7009  142.1664  162.5523 O.2     1  UNL1       -0.2450
     24 O         142.9468  141.4067  163.6143 O.3     1  UNL1       -0.4455
     25 C         145.5332  141.6306  163.5113 C.3     1  UNL1        0.0513
     26 C         144.3000  140.7781  163.4601 C.3     1  UNL1        0.2089
     27 C         143.5331  142.5092  160.1904 C.3     1  UNL1        0.1405
     28 N         142.7679  143.6043  159.5084 N.3     1  UNL1       -0.2617
     29 C         141.7641  144.4099  160.2787 C.3     1  UNL1        0.1050
     30 C         140.9988  145.5050  159.5966 C.3     1  UNL1        0.1595
     31 O         141.2374  145.7945  158.1443 O.3     1  UNL1       -0.3508
     32 C         142.2412  144.9889  157.3740 C.3     1  UNL1        0.1595
     33 C         143.0065  143.8938  158.0560 C.3     1  UNL1        0.1050
@<TRIPOS>BOND
     1    25    26    1
     2    26    24    1
     3    24    22    1
     4    22    23    2
     5    22     1    1
     6     1     2    2
     7     2    27    1
     8    27    28    1
     9    28    29    1
    10    29    30    1
    11    30    31    1
    12    31    32    1
    13    32    33    1
    14     2     3    1
    15     3     4    1
    16     4    16    1
    17    16    17   ar
    18    17    18   ar
    19    18    19   ar
    20    19    20   ar
    21    20    21   ar
    22     4     5    2
    23     5     6    1
    24     6     8    1
    25     8     9   ar
    26     9    10   ar
    27    10    11   ar
    28    11    12    1
    29    11    13   ar
    30    13    14   ar
    31    14    15    1
    32     6     1    1
    33    14     8   ar
    34    33    28    1
    35    21    16   ar
    36     3     7    1
@<TRIPOS>MOLECULE
*****
 33 36 0 0 0
SMALL
GASTEIGER

@<TRIPOS>ATOM
      1 C         140.4068  141.1754  161.1391 C.2     1  UNL1        0.1397
      2 C         140.6276  140.3519  159.9050 C.2     1  UNL1        0.1355
      3 N         139.7309  140.5278  158.7156 N.pl3   1  UNL1       -0.2002
      4 C         138.6133  141.5273  158.7602 C.2     1  UNL1        0.3379
      5 N         138.3925  142.3508  159.9943 N.2     1  UNL1       -0.0585
      6 C         139.2892  142.1749  161.1837 C.3     1  UNL1        0.2691
      7 H         139.8758  139.9873  157.9056 H       1  UNL1        0.2983
      8 C         139.0684  142.9984  162.4179 C.ar    1  UNL1        0.0371
      9 C         139.7936  144.3001  162.5906 C.ar    1  UNL1        0.0030
     10 C         139.5728  145.1237  163.8246 C.ar    1  UNL1        0.0295
     11 C         138.6267  144.6456  164.8860 C.ar    1  UNL1        0.1406
     12 F         138.4059  145.4692  166.1201 F       1  UNL1       -0.2042
     13 C         137.9015  143.3440  164.7133 C.ar    1  UNL1        0.0362
     14 C         138.1224  142.5204  163.4792 C.ar    1  UNL1        0.0372
     15 BR        137.3972  141.2187  163.3065 Br      1  UNL1       -0.0491
     16 C         137.7165  141.7032  157.5707 C.ar    1  UNL1        0.1630
     17 C         137.7867  142.9621  156.7582 C.ar    1  UNL1        0.0267
     18 C         136.8899  143.1380  155.5687 C.ar    1  UNL1        0.0034
     19 C         135.9229  142.0551  155.1918 C.ar    1  UNL1        0.0207
     20 C         135.8528  140.7962  156.0043 C.ar    1  UNL1        0.0991
     21 N         136.7495  140.6202  157.1937 N.ar    1  UNL1       -0.2364
     22 C         141.3036  140.9995  162.3286 C.2     1  UNL1        0.3447
     23 O         140.9900  139.9525  163.3560 O.2     1  UNL1       -0.2450
     24 O         142.5140  141.8704  162.4907 O.3     1  UNL1       -0.4455
     25 C         142.2594  142.7801  164.9110 C.3     1  UNL1        0.0513
     26 C         143.0883  142.1100  163.8555 C.3     1  UNL1        0.2089
     27 C         141.7453  139.3523  159.8604 C.3     1  UNL1        0.1405
     28 N         142.5264  139.1567  158.5949 N.3     1  UNL1       -0.2617
     29 C         143.4090  140.2552  158.0809 C.3     1  UNL1        0.1050
     30 C         144.1901  140.0595  156.8153 C.3     1  UNL1        0.1595
     31 O         144.0886  138.7654  156.0638 O.3     1  UNL1       -0.3508
     32 C         143.2059  137.6669  156.5777 C.3     1  UNL1        0.1595
     33 C         142.4248  137.8625  157.8433 C.3     1  UNL1        0.1050
@<TRIPOS>BOND
     1    25    26    1
     2    26    24    1
     3    24    22    1
     4    22    23    2
     5    22     1    1
     6     1     2    2
     7     2    27    1
     8    27    28    1
     9    28    29    1
    10    29    30    1
    11    30    31    1
    12    31    32    1
    13    32    33    1
    14     2     3    1
    15     3     4    1
    16     4    16    1
    17    16    17   ar
    18    17    18   ar
    19    18    19   ar
    20    19    20   ar
    21    20    21   ar
    22     4     5    2
    23     5     6    1
    24     6     8    1
    25     8     9   ar
    26     9    10   ar
    27    10    11   ar
    28    11    12    1
    29    11    13   ar
    30    13    14   ar
    31    14    15    1
    32     6     1    1
    33    14     8   ar
    34    33    28    1
    35    21    16   ar
    36     3     7    1
@<TRIPOS>MOLECULE
*****
 33 36 0 0 0
SMALL
GASTEIGER

@<TRIPOS>ATOM
      1 C         141.2114  140.1826  160.6911 C.2     1  UNL1        0.1397
      2 C         140.8859  140.4100  159.2447 C.2     1  UNL1        0.1355
      3 N         141.4228  139.4777  158.1995 N.pl3   1  UNL1       -0.2002
      4 C         142.2853  138.3179  158.6007 C.2     1  UNL1        0.3379
      5 N         142.6108  138.0904  160.0472 N.2     1  UNL1       -0.0585
      6 C         142.0739  139.0228  161.0924 C.3     1  UNL1        0.2691
      7 H         141.2092  139.6270  157.2501 H       1  UNL1        0.2983
      8 C         142.3994  138.7953  162.5389 C.ar    1  UNL1        0.0371
      9 C         141.5243  137.9083  163.3741 C.ar    1  UNL1        0.0030
     10 C         141.8498  137.6808  164.8205 C.ar    1  UNL1        0.0295
     11 C         143.0505  138.3402  165.4319 C.ar    1  UNL1        0.1406
     12 F         143.3760  138.1127  166.8783 F       1  UNL1       -0.2042
     13 C         143.9256  139.2272  164.5967 C.ar    1  UNL1        0.0362
     14 C         143.6000  139.4547  163.1502 C.ar    1  UNL1        0.0372
     15 BR        144.4751  140.3416  162.3150 Br      1  UNL1       -0.0491
     16 C         142.8222  137.3856  157.5555 C.ar    1  UNL1        0.1630
     17 C         143.3441  137.9320  156.2598 C.ar    1  UNL1        0.0267
     18 C         143.8811  136.9997  155.2146 C.ar    1  UNL1        0.0034
     19 C         143.8961  135.5209  155.4651 C.ar    1  UNL1        0.0207
     20 C         143.3741  134.9744  156.7608 C.ar    1  UNL1        0.0991
     21 N         142.8372  135.9067  157.8060 N.ar    1  UNL1       -0.2364
     22 C         140.6745  141.1149  161.7363 C.2     1  UNL1        0.3447
     23 O         141.3756  142.4109  162.0168 O.2     1  UNL1       -0.2450
     24 O         139.4364  140.7512  162.5011 O.3     1  UNL1       -0.4455
     25 C         138.0813  138.5812  162.0488 C.3     1  UNL1        0.0513
     26 C         138.3083  140.0446  161.8098 C.3     1  UNL1        0.2089
     27 C         140.0234  141.5699  158.8434 C.3     1  UNL1        0.1405
     28 N         140.6202  142.9403  158.7181 N.3     1  UNL1       -0.2617
     29 C         139.9009  144.1266  159.2884 C.3     1  UNL1        0.1050
     30 C         140.4978  145.4971  159.1631 C.3     1  UNL1        0.1595
     31 O         141.8139  145.6812  158.4675 O.3     1  UNL1       -0.3508
     32 C         142.5332  144.4949  157.8972 C.3     1  UNL1        0.1595
     33 C         141.9364  143.1245  158.0224 C.3     1  UNL1        0.1050
@<TRIPOS>BOND
     1    25    26    1
     2    26    24    1
     3    24    22    1
     4    22    23    2
     5    22     1    1
     6     1     2    2
     7     2    27    1
     8    27    28    1
     9    28    29    1
    10    29    30    1
    11    30    31    1
    12    31    32    1
    13    32    33    1
    14     2     3    1
    15     3     4    1
    16     4    16    1
    17    16    17   ar
    18    17    18   ar
    19    18    19   ar
    20    19    20   ar
    21    20    21   ar
    22     4     5    2
    23     5     6    1
    24     6     8    1
    25     8     9   ar
    26     9    10   ar
    27    10    11   ar
    28    11    12    1
    29    11    13   ar
    30    13    14   ar
    31    14    15    1
    32     6     1    1
    33    14     8   ar
    34    33    28    1
    35    21    16   ar
    36     3     7    1
@<TRIPOS>MOLECULE
*****
 33 36 0 0 0
SMALL
GASTEIGER

@<TRIPOS>ATOM
      1 C         140.2880  140.6685  162.0782 C.2     1  UNL1        0.1397
      2 C         139.4678  141.0464  160.8805 C.2     1  UNL1        0.1355
      3 N         139.5942  140.2631  159.6075 N.pl3   1  UNL1       -0.2002
      4 C         140.5408  139.1020  159.5322 C.2     1  UNL1        0.3379
      5 N         141.3610  138.7242  160.7299 N.2     1  UNL1       -0.0585
      6 C         141.2346  139.5074  162.0029 C.3     1  UNL1        0.2691
      7 H         139.0559  140.5111  158.8215 H       1  UNL1        0.2983
      8 C         142.0549  139.1295  163.2006 C.ar    1  UNL1        0.0371
      9 C         143.4476  139.6647  163.3550 C.ar    1  UNL1        0.0030
     10 C         144.2679  139.2869  164.5526 C.ar    1  UNL1        0.0295
     11 C         143.6954  138.3737  165.5960 C.ar    1  UNL1        0.1406
     12 F         144.5156  137.9959  166.7936 F       1  UNL1       -0.2042
     13 C         142.3027  137.8385  165.4416 C.ar    1  UNL1        0.0362
     14 C         141.4824  138.2164  164.2439 C.ar    1  UNL1        0.0372
     15 BR        140.0897  137.6812  164.0895 Br      1  UNL1       -0.0491
     16 C         140.6673  138.3188  158.2592 C.ar    1  UNL1        0.1630
     17 C         142.0025  137.7787  157.8403 C.ar    1  UNL1        0.0267
     18 C         142.1289  136.9955  156.5673 C.ar    1  UNL1        0.0034
     19 C         140.9201  136.7522  155.7132 C.ar    1  UNL1        0.0207
     20 C         139.5849  137.2923  156.1321 C.ar    1  UNL1        0.0991
     21 N         139.4584  138.0755  157.4051 N.ar    1  UNL1       -0.2364
     22 C         140.1616  141.4518  163.3512 C.2     1  UNL1        0.3447
     23 O         139.0079  141.1992  164.2758 O.2     1  UNL1       -0.2450
     24 O         141.1890  142.4877  163.6996 O.3     1  UNL1       -0.4455
     25 C         142.7444  144.3643  162.8001 C.3     1  UNL1        0.0513
     26 C         142.1135  143.0127  162.6415 C.3     1  UNL1        0.2089
     27 C         138.5212  142.2076  160.9558 C.3     1  UNL1        0.1405
     28 N         139.0554  143.6073  161.0278 N.3     1  UNL1       -0.2617
     29 C         138.7525  144.4653  162.2203 C.3     1  UNL1        0.1050
     30 C         139.2868  145.8651  162.2923 C.3     1  UNL1        0.1595
     31 O         140.1239  146.4069  161.1718 O.3     1  UNL1       -0.3508
     32 C         140.4268  145.5489  159.9792 C.3     1  UNL1        0.1595
     33 C         139.8926  144.1492  159.9072 C.3     1  UNL1        0.1050
@<TRIPOS>BOND
     1    25    26    1
     2    26    24    1
     3    24    22    1
     4    22    23    2
     5    22     1    1
     6     1     2    2
     7     2    27    1
     8    27    28    1
     9    28    29    1
    10    29    30    1
    11    30    31    1
    12    31    32    1
    13    32    33    1
    14     2     3    1
    15     3     4    1
    16     4    16    1
    17    16    17   ar
    18    17    18   ar
    19    18    19   ar
    20    19    20   ar
    21    20    21   ar
    22     4     5    2
    23     5     6    1
    24     6     8    1
    25     8     9   ar
    26     9    10   ar
    27    10    11   ar
    28    11    12    1
    29    11    13   ar
    30    13    14   ar
    31    14    15    1
    32     6     1    1
    33    14     8   ar
    34    33    28    1
    35    21    16   ar
    36     3     7    1
@<TRIPOS>MOLECULE
*****
 33 36 0 0 0
SMALL
GASTEIGER

@<TRIPOS>ATOM
      1 C         143.1397  141.4446  161.8699 C.2     1  UNL1        0.1397
      2 C         143.0056  141.9220  160.4543 C.2     1  UNL1        0.1355
      3 N         142.6389  140.9547  159.3681 N.pl3   1  UNL1       -0.2002
      4 C         142.4063  139.5100  159.6975 C.2     1  UNL1        0.3379
      5 N         142.5404  139.0325  161.1131 N.2     1  UNL1       -0.0585
      6 C         142.9071  139.9998  162.1993 C.3     1  UNL1        0.2691
      7 H         142.5509  141.2681  158.4390 H       1  UNL1        0.2983
      8 C         143.0412  139.5223  163.6150 C.ar    1  UNL1        0.0371
      9 C         144.3965  139.2061  164.1746 C.ar    1  UNL1        0.0030
     10 C         144.5307  138.7286  165.5902 C.ar    1  UNL1        0.0295
     11 C         143.3095  138.5673  166.4463 C.ar    1  UNL1        0.1406
     12 F         143.4437  138.0899  167.8619 F       1  UNL1       -0.2042
     13 C         141.9542  138.8836  165.8867 C.ar    1  UNL1        0.0362
     14 C         141.8201  139.3611  164.4710 C.ar    1  UNL1        0.0372
     15 BR        140.4648  139.6773  163.9114 Br      1  UNL1       -0.0491
     16 C         142.0396  138.5427  158.6113 C.ar    1  UNL1        0.1630
     17 C         140.6191  138.4485  158.1390 C.ar    1  UNL1        0.0267
     18 C         140.2524  137.4812  157.0528 C.ar    1  UNL1        0.0034
     19 C         141.3062  136.6080  156.4389 C.ar    1  UNL1        0.0207
     20 C         142.7268  136.7022  156.9112 C.ar    1  UNL1        0.0991
     21 N         143.0935  137.6695  157.9974 N.ar    1  UNL1       -0.2364
     22 C         143.5064  142.4119  162.9561 C.2     1  UNL1        0.3447
     23 O         144.9447  142.7679  163.1892 O.2     1  UNL1       -0.2450
     24 O         142.4348  143.0232  163.8092 O.3     1  UNL1       -0.4455
     25 C         141.1825  142.7751  166.0721 C.3     1  UNL1        0.0513
     26 C         142.4656  142.8403  165.2977 C.3     1  UNL1        0.2089
     27 C         143.2382  143.3669  160.1248 C.3     1  UNL1        0.1405
     28 N         142.0725  144.2720  159.8568 N.3     1  UNL1       -0.2617
     29 C         141.2673  144.8162  160.9994 C.3     1  UNL1        0.1050
     30 C         140.1016  145.7215  160.7313 C.3     1  UNL1        0.1595
     31 O         139.7412  146.0825  159.3207 O.3     1  UNL1       -0.3508
     32 C         140.5464  145.5382  158.1782 C.3     1  UNL1        0.1595
     33 C         141.7121  144.6331  158.4462 C.3     1  UNL1        0.1050
@<TRIPOS>BOND
     1    25    26    1
     2    26    24    1
     3    24    22    1
     4    22    23    2
     5    22     1    1
     6     1     2    2
     7     2    27    1
     8    27    28    1
     9    28    29    1
    10    29    30    1
    11    30    31    1
    12    31    32    1
    13    32    33    1
    14     2     3    1
    15     3     4    1
    16     4    16    1
    17    16    17   ar
    18    17    18   ar
    19    18    19   ar
    20    19    20   ar
    21    20    21   ar
    22     4     5    2
    23     5     6    1
    24     6     8    1
    25     8     9   ar
    26     9    10   ar
    27    10    11   ar
    28    11    12    1
    29    11    13   ar
    30    13    14   ar
    31    14    15    1
    32     6     1    1
    33    14     8   ar
    34    33    28    1
    35    21    16   ar
    36     3     7    1
@<TRIPOS>MOLECULE
*****
 33 36 0 0 0
SMALL
GASTEIGER

@<TRIPOS>ATOM
      1 C         142.2629  141.6986  164.1462 C.2     1  UNL1        0.1397
      2 C         142.8529  140.6448  165.0357 C.2     1  UNL1        0.1355
      3 N         142.5876  140.6745  166.5117 N.pl3   1  UNL1       -0.2002
      4 C         141.7322  141.7582  167.0983 C.2     1  UNL1        0.3379
      5 N         141.1423  142.8120  166.2088 N.2     1  UNL1       -0.0585
      6 C         141.4076  142.7823  164.7327 C.3     1  UNL1        0.2691
      7 H         142.9748  139.9828  167.0955 H       1  UNL1        0.2983
      8 C         140.8176  143.8362  163.8432 C.ar    1  UNL1        0.0371
      9 C         139.3982  143.7129  163.3739 C.ar    1  UNL1        0.0030
     10 C         138.8082  144.7668  162.4845 C.ar    1  UNL1        0.0295
     11 C         139.6375  145.9440  162.0642 C.ar    1  UNL1        0.1406
     12 F         139.0474  146.9978  161.1748 F       1  UNL1       -0.2042
     13 C         141.0568  146.0672  162.5335 C.ar    1  UNL1        0.0362
     14 C         141.6469  145.0133  163.4230 C.ar    1  UNL1        0.0372
     15 BR        143.0662  145.1366  163.8923 Br      1  UNL1       -0.0491
     16 C         141.4669  141.7880  168.5743 C.ar    1  UNL1        0.1630
     17 C         140.4332  142.7210  169.1318 C.ar    1  UNL1        0.0267
     18 C         140.1679  142.7508  170.6079 C.ar    1  UNL1        0.0034
     19 C         140.9362  141.8475  171.5264 C.ar    1  UNL1        0.0207
     20 C         141.9699  140.9145  170.9689 C.ar    1  UNL1        0.0991
     21 N         142.2352  140.8847  169.4928 N.ar    1  UNL1       -0.2364
     22 C         142.5283  141.6688  162.6701 C.2     1  UNL1        0.3447
     23 O         143.8663  142.0912  162.1400 O.2     1  UNL1       -0.2450
     24 O         141.4555  141.2167  161.7242 O.3     1  UNL1       -0.4455
     25 C         141.2342  143.2080  160.0703 C.3     1  UNL1        0.0513
     26 C         141.4246  141.7411  160.3192 C.3     1  UNL1        0.2089
     27 C         143.7083  139.5610  164.4491 C.3     1  UNL1        0.1405
     28 N         143.2086  138.7589  163.2844 N.3     1  UNL1       -0.2617
     29 C         141.8245  138.1812  163.3102 C.3     1  UNL1        0.1050
     30 C         141.3248  137.3790  162.1453 C.3     1  UNL1        0.1595
     31 O         142.2091  137.1545  160.9547 O.3     1  UNL1       -0.3508
     32 C         143.5931  137.7322  160.9289 C.3     1  UNL1        0.1595
     33 C         144.0929  138.5344  162.0937 C.3     1  UNL1        0.1050
@<TRIPOS>BOND
     1    25    26    1
     2    26    24    1
     3    24    22    1
     4    22    23    2
     5    22     1    1
     6     1     2    2
     7     2    27    1
     8    27    28    1
     9    28    29    1
    10    29    30    1
    11    30    31    1
    12    31    32    1
    13    32    33    1
    14     2     3    1
    15     3     4    1
    16     4    16    1
    17    16    17   ar
    18    17    18   ar
    19    18    19   ar
    20    19    20   ar
    21    20    21   ar
    22     4     5    2
    23     5     6    1
    24     6     8    1
    25     8     9   ar
    26     9    10   ar
    27    10    11   ar
    28    11    12    1
    29    11    13   ar
    30    13    14   ar
    31    14    15    1
    32     6     1    1
    33    14     8   ar
    34    33    28    1
    35    21    16   ar
    36     3     7    1
