@<TRIPOS>MOLECULE
*****
 32 36 0 0 0
SMALL
GASTEIGER

@<TRIPOS>ATOM
      1 C         141.9988  140.9765  168.7621 C.ar    1  UNL1        0.2057
      2 N         141.6971  142.0198  167.7274 N.ar    1  UNL1       -0.2124
      3 C         140.5543  141.5260  166.8908 C.ar    1  UNL1        0.1143
      4 C         139.8297  142.1300  165.7244 C.ar    1  UNL1       -0.0040
      5 C         138.7006  141.3856  165.0758 C.ar    1  UNL1       -0.0231
      6 C         138.2959  140.0372  165.5934 C.ar    1  UNL1       -0.0013
      7 C         139.0204  139.4331  166.7597 C.ar    1  UNL1        0.0388
      8 C         140.1496  140.1775  167.4084 C.ar    1  UNL1        0.1640
      9 O         141.0424  139.8380  168.5650 O.2     1  UNL1       -0.4384
     10 C         137.8521  141.8027  163.9112 C.3     1  UNL1        0.0434
     11 C         137.9234  143.0674  163.1077 C.3     1  UNL1        0.0768
     12 N         138.8606  144.2271  163.2703 N.3     1  UNL1       -0.2720
     13 C         139.9581  144.4088  164.2766 C.3     1  UNL1        0.0769
     14 C         140.3894  143.4755  165.3688 C.3     1  UNL1        0.0450
     15 C         143.9189  142.2887  169.9204 C.3     1  UNL1        0.0102
     16 C         143.0691  141.0576  169.8100 C.3     1  UNL1        0.0853
     17 C         138.6760  145.3544  162.2981 C.3     1  UNL1        0.0730
     18 C         139.8725  146.0211  161.6867 C.3     1  UNL1        0.0294
     19 C         140.3108  145.6511  160.3006 C.3     1  UNL1        0.0666
     20 S         141.1049  144.3989  160.0744 S.3     1  UNL1       -0.0756
     21 C         141.9350  143.8263  161.1849 C.ar    1  UNL1        0.1933
     22 N         143.0150  144.5441  161.9386 N.ar    1  UNL1       -0.1220
     23 N         143.5783  143.5968  162.9562 N.ar    1  UNL1       -0.1250
     24 C         142.8463  142.2935  162.8312 C.ar    1  UNL1        0.2029
     25 N         141.8307  142.4353  161.7365 N.ar    1  UNL1       -0.2860
     26 C         140.8780  141.3727  161.2746 C.3     1  UNL1        0.1341
     27 C         143.0876  141.0642  163.6562 C.ar    1  UNL1        0.1964
     28 O         142.0390  140.1064  164.1387 O.2     1  UNL1       -0.4283
     29 C         142.7231  139.0270  164.9243 C.ar    1  UNL1        0.2849
     30 N         144.1947  139.3178  164.9272 N.ar    1  UNL1       -0.2085
     31 C         144.4199  140.5769  164.1434 C.ar    1  UNL1        0.1001
     32 C         145.7449  141.2332  163.8913 C.3     1  UNL1        0.0556
@<TRIPOS>BOND
     1    15    16    1
     2    16     1    1
     3     1     2   ar
     4     2     3   ar
     5     3     4   ar
     6     4     5   ar
     7     5     6   ar
     8     6     7   ar
     9     7     8   ar
    10     8     9   ar
    11     5    10    1
    12    10    11    1
    13    11    12    1
    14    12    17    1
    15    17    18    1
    16    18    19    1
    17    19    20    1
    18    20    21    1
    19    21    22   ar
    20    22    23   ar
    21    23    24   ar
    22    24    27    1
    23    27    28   ar
    24    28    29   ar
    25    29    30   ar
    26    30    31   ar
    27    31    32    1
    28    24    25   ar
    29    25    26    1
    30    12    13    1
    31    13    14    1
    32     9     1   ar
    33    25    21   ar
    34     8     3   ar
    35    31    27   ar
    36    14     4    1
@<TRIPOS>MOLECULE
*****
 32 36 0 0 0
SMALL
GASTEIGER

@<TRIPOS>ATOM
      1 C         141.3826  141.4665  168.9059 C.ar    1  UNL1        0.2057
      2 N         140.4609  141.1780  167.7581 N.ar    1  UNL1       -0.2124
      3 C         141.0994  140.1223  166.9050 C.ar    1  UNL1        0.1143
      4 C         140.6523  139.4454  165.6433 C.ar    1  UNL1       -0.0040
      5 C         141.5214  138.4046  165.0022 C.ar    1  UNL1       -0.0231
      6 C         142.8376  138.0405  165.6226 C.ar    1  UNL1       -0.0013
      7 C         143.2847  138.7174  166.8843 C.ar    1  UNL1        0.0388
      8 C         142.4156  139.7583  167.5255 C.ar    1  UNL1        0.1640
      9 O         142.5906  140.5890  168.7622 O.2     1  UNL1       -0.4384
     10 C         141.2673  137.6143  163.7527 C.3     1  UNL1        0.0434
     11 C         140.0813  137.6698  162.8359 C.3     1  UNL1        0.0768
     12 N         138.8566  138.5292  162.9422 N.3     1  UNL1       -0.2720
     13 C         138.5152  139.5455  163.9914 C.3     1  UNL1        0.0769
     14 C         139.3144  139.9532  165.1935 C.3     1  UNL1        0.0450
     15 C         140.4840  143.7723  169.6972 C.3     1  UNL1        0.0102
     16 C         141.1389  142.4582  170.0046 C.3     1  UNL1        0.0853
     17 C         137.8385  138.3486  161.8555 C.3     1  UNL1        0.0730
     18 C         137.4709  139.5041  160.9725 C.3     1  UNL1        0.0294
     19 C         138.2702  139.7865  159.7350 C.3     1  UNL1        0.0666
     20 S         138.4938  141.2024  159.2933 S.3     1  UNL1       -0.0756
     21 C         138.9960  142.2227  160.2715 C.ar    1  UNL1        0.1933
     22 N         138.1794  143.3040  160.9149 N.ar    1  UNL1       -0.1220
     23 N         139.0817  144.0905  161.8190 N.ar    1  UNL1       -0.1250
     24 C         140.4559  143.4952  161.7343 C.ar    1  UNL1        0.2029
     25 N         140.4030  142.3409  160.7779 N.ar    1  UNL1       -0.2860
     26 C         141.5548  141.4595  160.3951 C.3     1  UNL1        0.1341
     27 C         141.6700  143.9708  162.4758 C.ar    1  UNL1        0.1964
     28 O         142.9086  144.5504  161.8597 O.2     1  UNL1       -0.4283
     29 C         143.8627  144.8881  162.9668 C.ar    1  UNL1        0.2849
     30 N         143.2137  144.5172  164.2672 N.ar    1  UNL1       -0.2085
     31 C         141.8585  143.9502  163.9638 C.ar    1  UNL1        0.1001
     32 C         140.8661  143.4504  164.9715 C.3     1  UNL1        0.0556
@<TRIPOS>BOND
     1    15    16    1
     2    16     1    1
     3     1     2   ar
     4     2     3   ar
     5     3     4   ar
     6     4     5   ar
     7     5     6   ar
     8     6     7   ar
     9     7     8   ar
    10     8     9   ar
    11     5    10    1
    12    10    11    1
    13    11    12    1
    14    12    17    1
    15    17    18    1
    16    18    19    1
    17    19    20    1
    18    20    21    1
    19    21    22   ar
    20    22    23   ar
    21    23    24   ar
    22    24    27    1
    23    27    28   ar
    24    28    29   ar
    25    29    30   ar
    26    30    31   ar
    27    31    32    1
    28    24    25   ar
    29    25    26    1
    30    12    13    1
    31    13    14    1
    32     9     1   ar
    33    25    21   ar
    34     8     3   ar
    35    31    27   ar
    36    14     4    1
@<TRIPOS>MOLECULE
*****
 32 36 0 0 0
SMALL
GASTEIGER

@<TRIPOS>ATOM
      1 C         140.5281  141.3678  168.8016 C.ar    1  UNL1        0.2057
      2 N         141.3685  140.9917  167.6174 N.ar    1  UNL1       -0.2124
      3 C         140.5973  139.9999  166.7980 C.ar    1  UNL1        0.1143
      4 C         140.9241  139.2818  165.5222 C.ar    1  UNL1       -0.0040
      5 C         139.9339  138.3269  164.9244 C.ar    1  UNL1       -0.0231
      6 C         138.6169  138.0899  165.6021 C.ar    1  UNL1       -0.0013
      7 C         138.2901  138.8080  166.8779 C.ar    1  UNL1        0.0388
      8 C         139.2803  139.7630  167.4759 C.ar    1  UNL1        0.1640
      9 O         139.2376  140.6084  168.7142 O.2     1  UNL1       -0.4384
     10 C         140.0585  137.5142  163.6697 C.3     1  UNL1        0.0434
     11 C         141.2042  137.4559  162.7031 C.3     1  UNL1        0.0768
     12 N         142.5079  138.1958  162.7525 N.3     1  UNL1       -0.2720
     13 C         142.9883  139.1767  163.7806 C.3     1  UNL1        0.0769
     14 C         142.2834  139.6601  165.0133 C.3     1  UNL1        0.0450
     15 C         140.5307  143.7801  169.7667 C.3     1  UNL1        0.0102
     16 C         140.9111  142.3338  169.8835 C.3     1  UNL1        0.0853
     17 C         143.4570  137.9180  161.6246 C.3     1  UNL1        0.0730
     18 C         143.4373  138.7811  160.3979 C.3     1  UNL1        0.0294
     19 C         144.1171  140.1182  160.4105 C.3     1  UNL1        0.0666
     20 S         143.3622  141.3473  159.9993 S.3     1  UNL1       -0.0756
     21 C         142.9635  142.3623  161.0293 C.ar    1  UNL1        0.1933
     22 N         143.7062  143.6233  161.3581 N.ar    1  UNL1       -0.1220
     23 N         142.9539  144.3348  162.4433 N.ar    1  UNL1       -0.1250
     24 C         141.7462  143.5135  162.7852 C.ar    1  UNL1        0.2029
     25 N         141.7521  142.2943  161.9113 N.ar    1  UNL1       -0.2860
     26 C         140.7267  141.1996  161.9182 C.3     1  UNL1        0.1341
     27 C         140.7138  143.8518  163.8194 C.ar    1  UNL1        0.1964
     28 O         140.6405  143.2909  165.2086 O.2     1  UNL1       -0.4283
     29 C         139.4548  143.9029  165.8938 C.ar    1  UNL1        0.2849
     30 N         138.7952  144.8422  164.9281 N.ar    1  UNL1       -0.2085
     31 C         139.5733  144.8106  163.6460 C.ar    1  UNL1        0.1001
     32 C         139.2649  145.5994  162.4079 C.3     1  UNL1        0.0556
@<TRIPOS>BOND
     1    15    16    1
     2    16     1    1
     3     1     2   ar
     4     2     3   ar
     5     3     4   ar
     6     4     5   ar
     7     5     6   ar
     8     6     7   ar
     9     7     8   ar
    10     8     9   ar
    11     5    10    1
    12    10    11    1
    13    11    12    1
    14    12    17    1
    15    17    18    1
    16    18    19    1
    17    19    20    1
    18    20    21    1
    19    21    22   ar
    20    22    23   ar
    21    23    24   ar
    22    24    27    1
    23    27    28   ar
    24    28    29   ar
    25    29    30   ar
    26    30    31   ar
    27    31    32    1
    28    24    25   ar
    29    25    26    1
    30    12    13    1
    31    13    14    1
    32     9     1   ar
    33    25    21   ar
    34     8     3   ar
    35    31    27   ar
    36    14     4    1
@<TRIPOS>MOLECULE
*****
 32 36 0 0 0
SMALL
GASTEIGER

@<TRIPOS>ATOM
      1 C         141.0122  141.0113  169.3400 C.ar    1  UNL1        0.2057
      2 N         140.1394  140.6959  168.1615 N.ar    1  UNL1       -0.2124
      3 C         140.9333  139.8510  167.2097 C.ar    1  UNL1        0.1143
      4 C         140.5909  139.2431  165.8818 C.ar    1  UNL1       -0.0040
      5 C         141.6119  138.4286  165.1442 C.ar    1  UNL1       -0.0231
      6 C         142.9752  138.2218  165.7344 C.ar    1  UNL1       -0.0013
      7 C         143.3177  138.8296  167.0624 C.ar    1  UNL1        0.0388
      8 C         142.2967  139.6442  167.8000 C.ar    1  UNL1        0.1640
      9 O         142.3455  140.3613  169.1166 O.2     1  UNL1       -0.4384
     10 C         141.4785  137.7397  163.8184 C.3     1  UNL1        0.0434
     11 C         140.2910  137.6952  162.9029 C.3     1  UNL1        0.0768
     12 N         138.9440  138.3287  163.0870 N.3     1  UNL1       -0.2720
     13 C         138.4514  139.1631  164.2320 C.3     1  UNL1        0.0769
     14 C         139.1844  139.5700  165.4759 C.3     1  UNL1        0.0450
     15 C         140.1079  143.2298  170.3454 C.3     1  UNL1        0.0102
     16 C         140.6204  141.8325  170.5326 C.3     1  UNL1        0.0853
     17 C         137.9591  138.0972  161.9795 C.3     1  UNL1        0.0730
     18 C         137.9020  139.0430  160.8166 C.3     1  UNL1        0.0294
     19 C         137.6501  140.5033  161.0492 C.3     1  UNL1        0.0666
     20 S         138.7070  141.5107  160.7056 S.3     1  UNL1       -0.0756
     21 C         140.0609  141.4254  161.3456 C.ar    1  UNL1        0.1933
     22 N         141.1871  140.5350  160.9109 N.ar    1  UNL1       -0.1220
     23 N         142.3485  140.7748  161.8293 N.ar    1  UNL1       -0.1250
     24 C         141.9401  141.8133  162.8317 C.ar    1  UNL1        0.2029
     25 N         140.5263  142.2154  162.5327 N.ar    1  UNL1       -0.2860
     26 C         139.7195  143.2295  163.2882 C.3     1  UNL1        0.1341
     27 C         142.7954  142.3547  163.9386 C.ar    1  UNL1        0.1964
     28 O         142.6602  142.0299  165.3967 O.2     1  UNL1       -0.4283
     29 C         143.7174  142.7905  166.1411 C.ar    1  UNL1        0.2849
     30 N         144.5060  143.5854  165.1430 N.ar    1  UNL1       -0.2085
     31 C         143.9362  143.3161  163.7817 C.ar    1  UNL1        0.1001
     32 C         144.4219  143.9048  162.4904 C.3     1  UNL1        0.0556
@<TRIPOS>BOND
     1    15    16    1
     2    16     1    1
     3     1     2   ar
     4     2     3   ar
     5     3     4   ar
     6     4     5   ar
     7     5     6   ar
     8     6     7   ar
     9     7     8   ar
    10     8     9   ar
    11     5    10    1
    12    10    11    1
    13    11    12    1
    14    12    17    1
    15    17    18    1
    16    18    19    1
    17    19    20    1
    18    20    21    1
    19    21    22   ar
    20    22    23   ar
    21    23    24   ar
    22    24    27    1
    23    27    28   ar
    24    28    29   ar
    25    29    30   ar
    26    30    31   ar
    27    31    32    1
    28    24    25   ar
    29    25    26    1
    30    12    13    1
    31    13    14    1
    32     9     1   ar
    33    25    21   ar
    34     8     3   ar
    35    31    27   ar
    36    14     4    1
@<TRIPOS>MOLECULE
*****
 32 36 0 0 0
SMALL
GASTEIGER

@<TRIPOS>ATOM
      1 C         140.4453  145.2221  158.1805 C.ar    1  UNL1        0.2057
      2 N         141.5381  144.4107  158.8111 N.ar    1  UNL1       -0.2124
      3 C         141.4770  144.6243  160.2945 C.ar    1  UNL1        0.1143
      4 C         142.3048  144.0817  161.4216 C.ar    1  UNL1       -0.0040
      5 C         142.0020  144.4824  162.8349 C.ar    1  UNL1       -0.0231
      6 C         140.8716  145.4258  163.1213 C.ar    1  UNL1       -0.0013
      7 C         140.0438  145.9685  161.9942 C.ar    1  UNL1        0.0388
      8 C         140.3465  145.5677  160.5808 C.ar    1  UNL1        0.1640
      9 O         139.7089  145.9372  159.2743 O.2     1  UNL1       -0.4384
     10 C         142.6972  144.0615  164.0958 C.3     1  UNL1        0.0434
     11 C         143.8669  143.1358  164.2545 C.3     1  UNL1        0.0768
     12 N         144.6301  142.4026  163.1917 N.3     1  UNL1       -0.2720
     13 C         144.4124  142.4138  161.7076 C.3     1  UNL1        0.0769
     14 C         143.3775  143.1610  160.9198 C.3     1  UNL1        0.0450
     15 C         141.2335  145.0825  155.7088 C.3     1  UNL1        0.0102
     16 C         140.1422  145.3040  156.7137 C.3     1  UNL1        0.0853
     17 C         145.7607  141.5446  163.6771 C.3     1  UNL1        0.0730
     18 C         145.4733  140.2357  164.3511 C.3     1  UNL1        0.0294
     19 C         144.6059  139.2172  163.6725 C.3     1  UNL1        0.0666
     20 S         143.2511  138.8951  164.2299 S.3     1  UNL1       -0.0756
     21 C         142.1054  139.8375  164.0081 C.ar    1  UNL1        0.1933
     22 N         141.3702  140.5973  165.0721 N.ar    1  UNL1       -0.1220
     23 N         140.3042  141.4151  164.4051 N.ar    1  UNL1       -0.1250
     24 C         140.3806  141.1606  162.9288 C.ar    1  UNL1        0.2029
     25 N         141.4938  140.1856  162.6835 N.ar    1  UNL1       -0.2860
     26 C         141.9205  139.6524  161.3479 C.3     1  UNL1        0.1341
     27 C         139.4986  141.7735  161.8817 C.ar    1  UNL1        0.1964
     28 O         139.6296  141.5869  160.3992 O.2     1  UNL1       -0.4283
     29 C         138.5427  142.3787  159.7345 C.ar    1  UNL1        0.2849
     30 N         137.7400  143.0547  160.8063 N.ar    1  UNL1       -0.2085
     31 C         138.3308  142.6807  162.1334 C.ar    1  UNL1        0.1001
     32 C         137.8399  143.1342  163.4763 C.3     1  UNL1        0.0556
@<TRIPOS>BOND
     1    15    16    1
     2    16     1    1
     3     1     2   ar
     4     2     3   ar
     5     3     4   ar
     6     4     5   ar
     7     5     6   ar
     8     6     7   ar
     9     7     8   ar
    10     8     9   ar
    11     5    10    1
    12    10    11    1
    13    11    12    1
    14    12    17    1
    15    17    18    1
    16    18    19    1
    17    19    20    1
    18    20    21    1
    19    21    22   ar
    20    22    23   ar
    21    23    24   ar
    22    24    27    1
    23    27    28   ar
    24    28    29   ar
    25    29    30   ar
    26    30    31   ar
    27    31    32    1
    28    24    25   ar
    29    25    26    1
    30    12    13    1
    31    13    14    1
    32     9     1   ar
    33    25    21   ar
    34     8     3   ar
    35    31    27   ar
    36    14     4    1
@<TRIPOS>MOLECULE
*****
 32 36 0 0 0
SMALL
GASTEIGER

@<TRIPOS>ATOM
      1 C         141.1135  144.9133  160.8422 C.ar    1  UNL1        0.2057
      2 N         140.6032  144.5174  162.1961 N.ar    1  UNL1       -0.2124
      3 C         141.7601  143.9887  162.9911 C.ar    1  UNL1        0.1143
      4 C         141.8562  143.4532  164.3890 C.ar    1  UNL1       -0.0040
      5 C         143.1775  142.9870  164.9242 C.ar    1  UNL1       -0.0231
      6 C         144.4028  143.0561  164.0618 C.ar    1  UNL1       -0.0013
      7 C         144.3068  143.5916  162.6639 C.ar    1  UNL1        0.0388
      8 C         142.9854  144.0579  162.1285 C.ar    1  UNL1        0.1640
      9 O         142.5857  144.6293  160.8005 O.2     1  UNL1       -0.4384
     10 C         143.4917  142.4233  166.2784 C.3     1  UNL1        0.0434
     11 C         142.5620  142.1867  167.4316 C.3     1  UNL1        0.0768
     12 N         141.0888  142.4554  167.5154 N.3     1  UNL1       -0.2720
     13 C         140.1811  143.0270  166.4669 C.3     1  UNL1        0.0769
     14 C         140.5226  143.4711  165.0755 C.3     1  UNL1        0.0450
     15 C         140.5442  145.0594  158.3115 C.3     1  UNL1        0.0102
     16 C         140.2951  145.4917  159.7260 C.3     1  UNL1        0.0853
     17 C         140.4368  142.1063  168.8205 C.3     1  UNL1        0.0730
     18 C         139.7109  140.8023  168.9712 C.3     1  UNL1        0.0294
     19 C         139.8528  139.7392  167.9224 C.3     1  UNL1        0.0666
     20 S         138.6927  139.4036  167.0329 S.3     1  UNL1       -0.0756
     21 C         138.7392  139.7543  165.5752 C.ar    1  UNL1        0.1933
     22 N         137.9734  140.8589  164.9093 N.ar    1  UNL1       -0.1220
     23 N         138.3206  140.8494  163.4501 N.ar    1  UNL1       -0.1250
     24 C         139.3010  139.7389  163.2141 C.ar    1  UNL1        0.2029
     25 N         139.5598  139.0621  164.5276 N.ar    1  UNL1       -0.2860
     26 C         140.4778  137.8976  164.7536 C.3     1  UNL1        0.1341
     27 C         139.9149  139.3700  161.8962 C.ar    1  UNL1        0.1964
     28 O         139.2259  138.6551  160.7719 O.2     1  UNL1       -0.4283
     29 C         140.2107  138.4944  159.6520 C.ar    1  UNL1        0.2849
     30 N         141.5085  139.1100  160.0841 N.ar    1  UNL1       -0.2085
     31 C         141.3257  139.6512  161.4711 C.ar    1  UNL1        0.1001
     32 C         142.3703  140.3507  162.2894 C.3     1  UNL1        0.0556
@<TRIPOS>BOND
     1    15    16    1
     2    16     1    1
     3     1     2   ar
     4     2     3   ar
     5     3     4   ar
     6     4     5   ar
     7     5     6   ar
     8     6     7   ar
     9     7     8   ar
    10     8     9   ar
    11     5    10    1
    12    10    11    1
    13    11    12    1
    14    12    17    1
    15    17    18    1
    16    18    19    1
    17    19    20    1
    18    20    21    1
    19    21    22   ar
    20    22    23   ar
    21    23    24   ar
    22    24    27    1
    23    27    28   ar
    24    28    29   ar
    25    29    30   ar
    26    30    31   ar
    27    31    32    1
    28    24    25   ar
    29    25    26    1
    30    12    13    1
    31    13    14    1
    32     9     1   ar
    33    25    21   ar
    34     8     3   ar
    35    31    27   ar
    36    14     4    1
@<TRIPOS>MOLECULE
*****
 32 36 0 0 0
SMALL
GASTEIGER

@<TRIPOS>ATOM
      1 C         141.0627  144.4586  160.3839 C.ar    1  UNL1        0.2057
      2 N         141.8286  144.0208  161.5972 N.ar    1  UNL1       -0.2124
      3 C         140.8799  143.9918  162.7586 C.ar    1  UNL1        0.1143
      4 C         141.0726  143.6373  164.2034 C.ar    1  UNL1       -0.0040
      5 C         139.9132  143.7027  165.1527 C.ar    1  UNL1       -0.0231
      6 C         138.5610  144.1225  164.6574 C.ar    1  UNL1       -0.0013
      7 C         138.3682  144.4770  163.2127 C.ar    1  UNL1        0.0388
      8 C         139.5277  144.4117  162.2633 C.ar    1  UNL1        0.1640
      9 O         139.6407  144.7002  160.7957 O.2     1  UNL1       -0.4384
     10 C         139.8875  143.3939  166.6204 C.3     1  UNL1        0.0434
     11 C         141.0152  142.9435  167.5012 C.3     1  UNL1        0.0768
     12 N         142.4467  142.6906  167.1317 N.3     1  UNL1       -0.2720
     13 C         143.1044  142.8257  165.7904 C.3     1  UNL1        0.0769
     14 C         142.4929  143.2470  164.4871 C.3     1  UNL1        0.0450
     15 C         142.4115  143.5165  158.3730 C.3     1  UNL1        0.0102
     16 C         141.6209  144.6256  159.0017 C.3     1  UNL1        0.0853
     17 C         143.3387  142.2436  168.2518 C.3     1  UNL1        0.0730
     18 C         142.7766  142.0590  169.6303 C.3     1  UNL1        0.0294
     19 C         142.8712  140.7232  170.3062 C.3     1  UNL1        0.0666
     20 S         142.3449  139.4971  169.6212 S.3     1  UNL1       -0.0756
     21 C         141.0852  139.5732  168.8105 C.ar    1  UNL1        0.1933
     22 N         139.6964  139.7379  169.3527 N.ar    1  UNL1       -0.1220
     23 N         138.7459  139.7645  168.1926 N.ar    1  UNL1       -0.1250
     24 C         139.5473  139.6164  166.9333 C.ar    1  UNL1        0.2029
     25 N         140.9931  139.4981  167.3152 N.ar    1  UNL1       -0.2860
     26 C         142.1445  139.3337  166.3680 C.3     1  UNL1        0.1341
     27 C         138.9992  139.5909  165.5373 C.ar    1  UNL1        0.1964
     28 O         138.2633  140.7078  164.8585 O.2     1  UNL1       -0.4283
     29 C         137.9000  140.2513  163.4766 C.ar    1  UNL1        0.2849
     30 N         138.4115  138.8521  163.3013 N.ar    1  UNL1       -0.2085
     31 C         139.0908  138.4440  164.5749 C.ar    1  UNL1        0.1001
     32 C         139.7467  137.1211  164.8396 C.3     1  UNL1        0.0556
@<TRIPOS>BOND
     1    15    16    1
     2    16     1    1
     3     1     2   ar
     4     2     3   ar
     5     3     4   ar
     6     4     5   ar
     7     5     6   ar
     8     6     7   ar
     9     7     8   ar
    10     8     9   ar
    11     5    10    1
    12    10    11    1
    13    11    12    1
    14    12    17    1
    15    17    18    1
    16    18    19    1
    17    19    20    1
    18    20    21    1
    19    21    22   ar
    20    22    23   ar
    21    23    24   ar
    22    24    27    1
    23    27    28   ar
    24    28    29   ar
    25    29    30   ar
    26    30    31   ar
    27    31    32    1
    28    24    25   ar
    29    25    26    1
    30    12    13    1
    31    13    14    1
    32     9     1   ar
    33    25    21   ar
    34     8     3   ar
    35    31    27   ar
    36    14     4    1
@<TRIPOS>MOLECULE
*****
 32 36 0 0 0
SMALL
GASTEIGER

@<TRIPOS>ATOM
      1 C         141.0611  145.0212  160.1787 C.ar    1  UNL1        0.2057
      2 N         141.7679  144.3839  161.3382 N.ar    1  UNL1       -0.2124
      3 C         140.7848  144.2494  162.4631 C.ar    1  UNL1        0.1143
      4 C         140.9165  143.6939  163.8502 C.ar    1  UNL1       -0.0040
      5 C         139.7340  143.6926  164.7730 C.ar    1  UNL1       -0.0231
      6 C         138.4197  144.2468  164.3088 C.ar    1  UNL1       -0.0013
      7 C         138.2879  144.8023  162.9217 C.ar    1  UNL1        0.0388
      8 C         139.4704  144.8036  161.9988 C.ar    1  UNL1        0.1640
      9 O         139.6413  145.2806  160.5870 O.2     1  UNL1       -0.4384
     10 C         139.6494  143.1909  166.1841 C.3     1  UNL1        0.0434
     11 C         140.7266  142.5665  167.0209 C.3     1  UNL1        0.0768
     12 N         142.1541  142.2898  166.6532 N.3     1  UNL1       -0.2720
     13 C         142.8573  142.5689  165.3579 C.3     1  UNL1        0.0769
     14 C         142.3065  143.1938  164.1105 C.3     1  UNL1        0.0450
     15 C         142.3830  144.2762  158.0697 C.3     1  UNL1        0.0102
     16 C         141.6678  145.3427  158.8450 C.3     1  UNL1        0.0853
     17 C         142.9890  141.6491  167.7220 C.3     1  UNL1        0.0730
     18 C         142.7958  140.1997  168.0568 C.3     1  UNL1        0.0294
     19 C         142.4076  139.2271  166.9828 C.3     1  UNL1        0.0666
     20 S         143.4663  138.5692  166.1484 S.3     1  UNL1       -0.0756
     21 C         143.7605  139.0813  164.7696 C.ar    1  UNL1        0.1933
     22 N         144.8929  139.9884  164.3890 N.ar    1  UNL1       -0.1220
     23 N         144.8063  140.2440  162.9135 N.ar    1  UNL1       -0.1250
     24 C         143.6203  139.4948  162.3822 C.ar    1  UNL1        0.2029
     25 N         142.9740  138.7762  163.5293 N.ar    1  UNL1       -0.2860
     26 C         141.7552  137.9055  163.4500 C.3     1  UNL1        0.1341
     27 C         143.1613  139.4688  160.9544 C.ar    1  UNL1        0.1964
     28 O         143.8818  138.8230  159.8082 O.2     1  UNL1       -0.4283
     29 C         143.0670  139.0391  158.5675 C.ar    1  UNL1        0.2849
     30 N         141.8428  139.8184  158.9469 N.ar    1  UNL1       -0.2085
     31 C         141.9011  140.0840  160.4221 C.ar    1  UNL1        0.1001
     32 C         140.8786  140.8332  161.2241 C.3     1  UNL1        0.0556
@<TRIPOS>BOND
     1    15    16    1
     2    16     1    1
     3     1     2   ar
     4     2     3   ar
     5     3     4   ar
     6     4     5   ar
     7     5     6   ar
     8     6     7   ar
     9     7     8   ar
    10     8     9   ar
    11     5    10    1
    12    10    11    1
    13    11    12    1
    14    12    17    1
    15    17    18    1
    16    18    19    1
    17    19    20    1
    18    20    21    1
    19    21    22   ar
    20    22    23   ar
    21    23    24   ar
    22    24    27    1
    23    27    28   ar
    24    28    29   ar
    25    29    30   ar
    26    30    31   ar
    27    31    32    1
    28    24    25   ar
    29    25    26    1
    30    12    13    1
    31    13    14    1
    32     9     1   ar
    33    25    21   ar
    34     8     3   ar
    35    31    27   ar
    36    14     4    1
@<TRIPOS>MOLECULE
*****
 32 36 0 0 0
SMALL
GASTEIGER

@<TRIPOS>ATOM
      1 C         140.3825  145.3830  158.0748 C.ar    1  UNL1        0.2057
      2 N         141.4576  144.5588  158.7189 N.ar    1  UNL1       -0.2124
      3 C         141.3830  144.7762  160.2012 C.ar    1  UNL1        0.1143
      4 C         142.1911  144.2251  161.3384 C.ar    1  UNL1       -0.0040
      5 C         141.8780  144.6326  162.7475 C.ar    1  UNL1       -0.0231
      6 C         140.7569  145.5912  163.0196 C.ar    1  UNL1       -0.0013
      7 C         139.9487  146.1423  161.8825 C.ar    1  UNL1        0.0388
      8 C         140.2617  145.7348  160.4732 C.ar    1  UNL1        0.1640
      9 O         139.6434  146.1098  159.1590 O.2     1  UNL1       -0.4384
     10 C         142.5538  144.2053  164.0168 C.3     1  UNL1        0.0434
     11 C         143.7095  143.2648  164.1901 C.3     1  UNL1        0.0768
     12 N         144.4747  142.5195  163.1372 N.3     1  UNL1       -0.2720
     13 C         144.2735  142.5305  161.6508 C.3     1  UNL1        0.0769
     14 C         143.2572  143.2896  160.8503 C.3     1  UNL1        0.0450
     15 C         141.1867  145.8520  155.6492 C.3     1  UNL1        0.0102
     16 C         140.0966  145.4659  156.6046 C.3     1  UNL1        0.0853
     17 C         145.5886  141.6479  163.6367 C.3     1  UNL1        0.0730
     18 C         145.2811  140.3082  164.2374 C.3     1  UNL1        0.0294
     19 C         144.6404  139.2404  163.4011 C.3     1  UNL1        0.0666
     20 S         143.2055  138.8685  163.6301 S.3     1  UNL1       -0.0756
     21 C         142.4064  139.5757  164.6843 C.ar    1  UNL1        0.1933
     22 N         141.3571  140.6201  164.4428 N.ar    1  UNL1       -0.1220
     23 N         140.8185  141.0526  165.7743 N.ar    1  UNL1       -0.1250
     24 C         141.5349  140.2756  166.8386 C.ar    1  UNL1        0.2029
     25 N         142.5163  139.3628  166.1650 N.ar    1  UNL1       -0.2860
     26 C         143.4446  138.4052  166.8516 C.3     1  UNL1        0.1341
     27 C         141.3095  140.3910  168.3171 C.ar    1  UNL1        0.1964
     28 O         140.2331  139.7010  169.1014 O.2     1  UNL1       -0.4283
     29 C         140.3793  140.1002  170.5399 C.ar    1  UNL1        0.2849
     30 N         141.5461  141.0370  170.6447 N.ar    1  UNL1       -0.2085
     31 C         142.1211  141.2167  169.2709 C.ar    1  UNL1        0.1001
     32 C         143.3004  142.0720  168.9136 C.3     1  UNL1        0.0556
@<TRIPOS>BOND
     1    15    16    1
     2    16     1    1
     3     1     2   ar
     4     2     3   ar
     5     3     4   ar
     6     4     5   ar
     7     5     6   ar
     8     6     7   ar
     9     7     8   ar
    10     8     9   ar
    11     5    10    1
    12    10    11    1
    13    11    12    1
    14    12    17    1
    15    17    18    1
    16    18    19    1
    17    19    20    1
    18    20    21    1
    19    21    22   ar
    20    22    23   ar
    21    23    24   ar
    22    24    27    1
    23    27    28   ar
    24    28    29   ar
    25    29    30   ar
    26    30    31   ar
    27    31    32    1
    28    24    25   ar
    29    25    26    1
    30    12    13    1
    31    13    14    1
    32     9     1   ar
    33    25    21   ar
    34     8     3   ar
    35    31    27   ar
    36    14     4    1
