@<TRIPOS>MOLECULE
*****
 31 33 0 0 0
SMALL
GASTEIGER

@<TRIPOS>ATOM
      1 O         141.8654  138.1475  162.6178 O.3     1  UNL1       -0.3470
      2 C         142.7055  138.5466  163.7946 C.3     1  UNL1        0.1874
      3 C         141.4306  141.9950  165.2892 C.ar    1  UNL1        0.0586
      4 C         141.1759  141.6086  166.7160 C.ar    1  UNL1        0.0186
      5 C         141.4310  140.2016  167.1690 C.ar    1  UNL1        0.0738
      6 C         141.9409  139.1810  166.1953 C.ar    1  UNL1        0.0211
      7 C         142.1956  139.5673  164.7685 C.ar    1  UNL1        0.0883
      8 N         141.9405  140.9743  164.3154 N.ar    1  UNL1       -0.2515
      9 C         141.1763  139.8153  168.5959 C.3     1  UNL1        0.4187
     10 F         140.9215  139.4291  170.0227 F       1  UNL1       -0.1659
     11 F         139.8798  140.5692  168.5685 F       1  UNL1       -0.1659
     12 F         142.4727  139.0614  168.6233 F       1  UNL1       -0.1659
     13 C         141.1755  143.4020  164.8361 C.3     1  UNL1        0.0458
     14 C         139.3659  143.3070  162.9743 C.3     1  UNL1        0.0004
     15 C         139.8218  143.7897  164.3194 C.3     1  UNL1        0.0059
     16 C         138.9238  144.6601  165.1478 C.3     1  UNL1        0.0004
     17 C         140.4120  137.8285  162.8076 C.3     1  UNL1        0.1467
     18 C         139.3645  138.7104  162.1953 C.3     1  UNL1        0.0489
     19 C         140.1746  138.3831  160.9761 C.3     1  UNL1        0.0238
     20 C         139.7822  138.9450  159.6418 C.3     1  UNL1        0.0725
     21 N         138.5796  139.8342  159.5268 N.3     1  UNL1       -0.2715
     22 C         138.1872  140.3961  158.1925 C.3     1  UNL1        0.0896
     23 C         137.7695  140.1616  160.7460 C.3     1  UNL1        0.0725
     24 C         138.1619  139.5997  162.0803 C.3     1  UNL1        0.0238
     25 C         138.9182  138.7315  163.6272 C.ar    1  UNL1       -0.0202
     26 C         138.4791  140.0201  164.2571 C.ar    1  UNL1       -0.0019
     27 C         138.0328  140.0412  165.6890 C.ar    1  UNL1        0.0293
     28 C         138.0255  138.7737  166.4911 C.ar    1  UNL1        0.1401
     29 F         137.5792  138.7946  167.9230 F       1  UNL1       -0.2042
     30 C         138.4646  137.4850  165.8612 C.ar    1  UNL1        0.0293
     31 C         138.9109  137.4640  164.4293 C.ar    1  UNL1       -0.0019
@<TRIPOS>BOND
     1    14    15    1
     2    15    16    1
     3    15    13    1
     4    13     3    1
     5     3     4   ar
     6     4     5   ar
     7     5     9    1
     8     9    10    1
     9     9    11    1
    10     9    12    1
    11     5     6   ar
    12     6     7   ar
    13     7     2    1
    14     2     1    1
    15     1    17    1
    16    17    18    1
    17    18    25    1
    18    25    26   ar
    19    26    27   ar
    20    27    28   ar
    21    28    29    1
    22    28    30   ar
    23    30    31   ar
    24    18    19    1
    25    19    20    1
    26    20    21    1
    27    21    22    1
    28    21    23    1
    29    23    24    1
    30     7     8   ar
    31     8     3   ar
    32    24    18    1
    33    31    25   ar
@<TRIPOS>MOLECULE
*****
 31 33 0 0 0
SMALL
GASTEIGER

@<TRIPOS>ATOM
      1 O         143.2081  142.0882  161.8551 O.3     1  UNL1       -0.3470
      2 C         142.4655  142.9106  162.8661 C.3     1  UNL1        0.1874
      3 C         139.9489  140.9483  165.2253 C.ar    1  UNL1        0.0586
      4 C         140.7135  140.9460  166.5158 C.ar    1  UNL1        0.0186
      5 C         142.0621  141.5984  166.5897 C.ar    1  UNL1        0.0738
      6 C         142.6461  142.2533  165.3731 C.ar    1  UNL1        0.0211
      7 C         141.8815  142.2557  164.0827 C.ar    1  UNL1        0.0883
      8 N         140.5329  141.6032  164.0088 N.ar    1  UNL1       -0.2515
      9 C         142.8268  141.5960  167.8802 C.3     1  UNL1        0.4187
     10 F         143.5913  141.5936  169.1707 F       1  UNL1       -0.1659
     11 F         141.9418  140.5033  168.4024 F       1  UNL1       -0.1659
     12 F         143.7117  142.6888  167.3580 F       1  UNL1       -0.1659
     13 C         138.6003  140.2958  165.1514 C.3     1  UNL1        0.0458
     14 C         138.8713  137.7283  164.8609 C.3     1  UNL1        0.0004
     15 C         138.4117  138.9024  165.6735 C.3     1  UNL1        0.0059
     16 C         137.7634  138.6829  167.0083 C.3     1  UNL1        0.0004
     17 C         143.9280  140.8438  162.2834 C.3     1  UNL1        0.1467
     18 C         143.5682  139.5216  161.6733 C.3     1  UNL1        0.0489
     19 C         143.6852  140.3574  160.4333 C.3     1  UNL1        0.0238
     20 C         143.4451  139.7403  159.0874 C.3     1  UNL1        0.0725
     21 N         143.0881  138.2872  158.9815 N.3     1  UNL1       -0.2715
     22 C         142.8481  137.6700  157.6356 C.3     1  UNL1        0.0896
     23 C         142.9711  137.4514  160.2215 C.3     1  UNL1        0.0725
     24 C         143.2111  138.0685  161.5674 C.3     1  UNL1        0.0238
     25 C         143.5762  139.1450  163.1252 C.ar    1  UNL1       -0.0202
     26 C         144.7616  139.4810  163.9807 C.ar    1  UNL1       -0.0019
     27 C         144.7695  139.1044  165.4327 C.ar    1  UNL1        0.0293
     28 C         143.5921  138.3917  166.0291 C.ar    1  UNL1        0.1401
     29 F         143.6000  138.0150  167.4810 F       1  UNL1       -0.2042
     30 C         142.4066  138.0556  165.1735 C.ar    1  UNL1        0.0293
     31 C         142.3988  138.4323  163.7217 C.ar    1  UNL1       -0.0019
@<TRIPOS>BOND
     1    14    15    1
     2    15    16    1
     3    15    13    1
     4    13     3    1
     5     3     4   ar
     6     4     5   ar
     7     5     9    1
     8     9    10    1
     9     9    11    1
    10     9    12    1
    11     5     6   ar
    12     6     7   ar
    13     7     2    1
    14     2     1    1
    15     1    17    1
    16    17    18    1
    17    18    25    1
    18    25    26   ar
    19    26    27   ar
    20    27    28   ar
    21    28    29    1
    22    28    30   ar
    23    30    31   ar
    24    18    19    1
    25    19    20    1
    26    20    21    1
    27    21    22    1
    28    21    23    1
    29    23    24    1
    30     7     8   ar
    31     8     3   ar
    32    24    18    1
    33    31    25   ar
@<TRIPOS>MOLECULE
*****
 31 33 0 0 0
SMALL
GASTEIGER

@<TRIPOS>ATOM
      1 O         143.1480  138.4869  163.5539 O.3     1  UNL1       -0.3470
      2 C         143.6019  139.3769  164.6728 C.3     1  UNL1        0.1874
      3 C         141.1545  142.3638  165.5884 C.ar    1  UNL1        0.0586
      4 C         140.6095  141.8908  166.9034 C.ar    1  UNL1        0.0186
      5 C         141.0620  140.5799  167.4749 C.ar    1  UNL1        0.0738
      6 C         142.0594  139.7419  166.7314 C.ar    1  UNL1        0.0211
      7 C         142.6044  140.2149  165.4164 C.ar    1  UNL1        0.0883
      8 N         142.1519  141.5258  164.8449 N.ar    1  UNL1       -0.2515
      9 C         140.5170  140.1069  168.7899 C.3     1  UNL1        0.4187
     10 F         139.9720  139.6339  170.1049 F       1  UNL1       -0.1659
     11 F         141.8387  139.4740  169.1100 F       1  UNL1       -0.1659
     12 F         139.1953  140.7398  168.4698 F       1  UNL1       -0.1659
     13 C         140.7020  143.6748  165.0169 C.3     1  UNL1        0.0458
     14 C         138.4565  143.2088  163.7961 C.3     1  UNL1        0.0004
     15 C         139.2383  143.9505  164.8395 C.3     1  UNL1        0.0059
     16 C         138.5563  144.9678  165.7056 C.3     1  UNL1        0.0004
     17 C         141.7647  137.9070  163.5708 C.3     1  UNL1        0.1467
     18 C         140.7914  138.2569  162.4845 C.3     1  UNL1        0.0489
     19 C         142.0176  137.9951  161.6612 C.3     1  UNL1        0.0238
     20 C         141.9620  138.1320  160.1685 C.3     1  UNL1        0.0725
     21 N         140.6802  138.5307  159.4991 N.3     1  UNL1       -0.2715
     22 C         140.6247  138.6675  158.0064 C.3     1  UNL1        0.0896
     23 C         139.4540  138.7925  160.3224 C.3     1  UNL1        0.0725
     24 C         139.5095  138.6556  161.8151 C.3     1  UNL1        0.0238
     25 C         139.9032  138.3972  163.6851 C.ar    1  UNL1       -0.0202
     26 C         139.7554  137.2551  164.6462 C.ar    1  UNL1       -0.0019
     27 C         138.8671  137.3953  165.8468 C.ar    1  UNL1        0.0293
     28 C         138.1268  138.6777  166.0863 C.ar    1  UNL1        0.1401
     29 F         137.2386  138.8180  167.2869 F       1  UNL1       -0.2042
     30 C         138.2746  139.8199  165.1252 C.ar    1  UNL1        0.0293
     31 C         139.1628  139.6795  163.9246 C.ar    1  UNL1       -0.0019
@<TRIPOS>BOND
     1    14    15    1
     2    15    16    1
     3    15    13    1
     4    13     3    1
     5     3     4   ar
     6     4     5   ar
     7     5     9    1
     8     9    10    1
     9     9    11    1
    10     9    12    1
    11     5     6   ar
    12     6     7   ar
    13     7     2    1
    14     2     1    1
    15     1    17    1
    16    17    18    1
    17    18    25    1
    18    25    26   ar
    19    26    27   ar
    20    27    28   ar
    21    28    29    1
    22    28    30   ar
    23    30    31   ar
    24    18    19    1
    25    19    20    1
    26    20    21    1
    27    21    22    1
    28    21    23    1
    29    23    24    1
    30     7     8   ar
    31     8     3   ar
    32    24    18    1
    33    31    25   ar
@<TRIPOS>MOLECULE
*****
 31 33 0 0 0
SMALL
GASTEIGER

@<TRIPOS>ATOM
      1 O         143.3121  138.5816  164.1744 O.3     1  UNL1       -0.3470
      2 C         142.0006  137.9543  163.8048 C.3     1  UNL1        0.1874
      3 C         139.0014  140.5466  163.9910 C.ar    1  UNL1        0.0586
      4 C         138.1423  139.9111  165.0436 C.ar    1  UNL1        0.0186
      5 C         138.5693  138.6233  165.6833 C.ar    1  UNL1        0.0738
      6 C         139.8554  137.9710  165.2704 C.ar    1  UNL1        0.0211
      7 C         140.7145  138.6066  164.2178 C.ar    1  UNL1        0.0883
      8 N         140.2875  139.8944  163.5781 N.ar    1  UNL1       -0.2515
      9 C         137.7102  137.9877  166.7360 C.3     1  UNL1        0.4187
     10 F         136.8511  137.3522  167.7886 F       1  UNL1       -0.1659
     11 F         137.5898  139.3091  167.4355 F       1  UNL1       -0.1659
     12 F         137.8305  136.6663  166.0364 F       1  UNL1       -0.1659
     13 C         138.5744  141.8344  163.3513 C.3     1  UNL1        0.0458
     14 C         139.1012  143.6564  165.1269 C.3     1  UNL1        0.0004
     15 C         139.2455  143.1203  163.7334 C.3     1  UNL1        0.0059
     16 C         140.0609  143.8702  162.7220 C.3     1  UNL1        0.0004
     17 C         143.4191  139.4224  165.4120 C.3     1  UNL1        0.1467
     18 C         143.1924  140.9031  165.3347 C.3     1  UNL1        0.0489
     19 C         144.0186  140.7011  164.0992 C.3     1  UNL1        0.0238
     20 C         144.3586  141.8715  163.2247 C.3     1  UNL1        0.0725
     21 N         143.8724  143.2438  163.5858 N.3     1  UNL1       -0.2715
     22 C         144.2124  144.4141  162.7113 C.3     1  UNL1        0.0896
     23 C         143.0462  143.4458  164.8213 C.3     1  UNL1        0.0725
     24 C         142.7062  142.2754  165.6958 C.3     1  UNL1        0.0238
     25 C         142.4449  140.5908  166.5971 C.ar    1  UNL1       -0.0202
     26 C         141.1223  141.2449  166.8669 C.ar    1  UNL1       -0.0019
     27 C         140.3747  140.9326  168.1293 C.ar    1  UNL1        0.0293
     28 C         140.9498  139.9662  169.1219 C.ar    1  UNL1        0.1401
     29 F         140.2024  139.6538  170.3843 F       1  UNL1       -0.2042
     30 C         142.2725  139.3120  168.8521 C.ar    1  UNL1        0.0293
     31 C         143.0200  139.6244  167.5897 C.ar    1  UNL1       -0.0019
@<TRIPOS>BOND
     1    14    15    1
     2    15    16    1
     3    15    13    1
     4    13     3    1
     5     3     4   ar
     6     4     5   ar
     7     5     9    1
     8     9    10    1
     9     9    11    1
    10     9    12    1
    11     5     6   ar
    12     6     7   ar
    13     7     2    1
    14     2     1    1
    15     1    17    1
    16    17    18    1
    17    18    25    1
    18    25    26   ar
    19    26    27   ar
    20    27    28   ar
    21    28    29    1
    22    28    30   ar
    23    30    31   ar
    24    18    19    1
    25    19    20    1
    26    20    21    1
    27    21    22    1
    28    21    23    1
    29    23    24    1
    30     7     8   ar
    31     8     3   ar
    32    24    18    1
    33    31    25   ar
@<TRIPOS>MOLECULE
*****
 31 33 0 0 0
SMALL
GASTEIGER

@<TRIPOS>ATOM
      1 O         143.3593  141.3906  165.7248 O.3     1  UNL1       -0.3470
      2 C         143.1368  142.2201  164.4950 C.3     1  UNL1        0.1874
      3 C         140.0316  141.8875  162.0461 C.ar    1  UNL1        0.0586
      4 C         138.9921  142.6633  162.7995 C.ar    1  UNL1        0.0186
      5 C         139.3341  143.2913  164.1180 C.ar    1  UNL1        0.0738
      6 C         140.7157  143.1436  164.6832 C.ar    1  UNL1        0.0211
      7 C         141.7552  142.3679  163.9299 C.ar    1  UNL1        0.0883
      8 N         141.4131  141.7398  162.6113 N.ar    1  UNL1       -0.2515
      9 C         138.2946  144.0672  164.8713 C.3     1  UNL1        0.4187
     10 F         137.2550  144.8429  165.6246 F       1  UNL1       -0.1659
     11 F         137.3535  142.9034  164.7711 F       1  UNL1       -0.1659
     12 F         139.2356  145.2309  164.9716 F       1  UNL1       -0.1659
     13 C         139.6895  141.2594  160.7276 C.3     1  UNL1        0.0458
     14 C         139.9517  138.6993  160.3714 C.3     1  UNL1        0.0004
     15 C         139.0889  139.8856  160.6846 C.3     1  UNL1        0.0059
     16 C         137.6253  139.6982  160.9548 C.3     1  UNL1        0.0004
     17 C         142.4874  140.2001  165.9943 C.3     1  UNL1        0.1467
     18 C         141.4448  140.2624  167.0709 C.3     1  UNL1        0.0489
     19 C         142.5602  141.0050  167.7451 C.3     1  UNL1        0.0238
     20 C         142.3714  141.5445  169.1319 C.3     1  UNL1        0.0725
     21 N         141.0672  141.3414  169.8446 N.3     1  UNL1       -0.2715
     22 C         140.8784  141.8809  171.2314 C.3     1  UNL1        0.0896
     23 C         139.9518  140.5988  169.1704 C.3     1  UNL1        0.0725
     24 C         140.1406  140.0593  167.7836 C.3     1  UNL1        0.0238
     25 C         140.6915  139.4981  166.0228 C.ar    1  UNL1       -0.0202
     26 C         139.2895  139.8955  165.6675 C.ar    1  UNL1       -0.0019
     27 C         138.5361  139.1312  164.6194 C.ar    1  UNL1        0.0293
     28 C         139.1849  137.9697  163.9266 C.ar    1  UNL1        0.1401
     29 F         138.4317  137.2054  162.8786 F       1  UNL1       -0.2042
     30 C         140.5871  137.5723  164.2820 C.ar    1  UNL1        0.0293
     31 C         141.3403  138.3366  165.3301 C.ar    1  UNL1       -0.0019
@<TRIPOS>BOND
     1    14    15    1
     2    15    16    1
     3    15    13    1
     4    13     3    1
     5     3     4   ar
     6     4     5   ar
     7     5     9    1
     8     9    10    1
     9     9    11    1
    10     9    12    1
    11     5     6   ar
    12     6     7   ar
    13     7     2    1
    14     2     1    1
    15     1    17    1
    16    17    18    1
    17    18    25    1
    18    25    26   ar
    19    26    27   ar
    20    27    28   ar
    21    28    29    1
    22    28    30   ar
    23    30    31   ar
    24    18    19    1
    25    19    20    1
    26    20    21    1
    27    21    22    1
    28    21    23    1
    29    23    24    1
    30     7     8   ar
    31     8     3   ar
    32    24    18    1
    33    31    25   ar
@<TRIPOS>MOLECULE
*****
 31 33 0 0 0
SMALL
GASTEIGER

@<TRIPOS>ATOM
      1 O         144.2096  143.5724  162.8535 O.3     1  UNL1       -0.3470
      2 C         144.0436  143.9136  164.3047 C.3     1  UNL1        0.1874
      3 C         140.5261  142.5241  165.5075 C.ar    1  UNL1        0.0586
      4 C         140.9188  141.8108  166.7672 C.ar    1  UNL1        0.0186
      5 C         142.3532  141.7984  167.2061 C.ar    1  UNL1        0.0738
      6 C         143.3947  142.4993  166.3852 C.ar    1  UNL1        0.0211
      7 C         143.0020  143.2126  165.1256 C.ar    1  UNL1        0.0883
      8 N         141.5677  143.2250  164.6867 N.ar    1  UNL1       -0.2515
      9 C         142.7459  141.0850  168.4658 C.3     1  UNL1        0.4187
     10 F         143.1386  140.3717  169.7255 F       1  UNL1       -0.1659
     11 F         143.6803  142.2068  168.8097 F       1  UNL1       -0.1659
     12 F         141.8115  139.9632  168.1219 F       1  UNL1       -0.1659
     13 C         139.0918  142.5365  165.0687 C.3     1  UNL1        0.0458
     14 C         137.7307  143.9721  163.3845 C.3     1  UNL1        0.0004
     15 C         138.4302  143.8324  164.7041 C.3     1  UNL1        0.0059
     16 C         138.4681  144.9886  165.6590 C.3     1  UNL1        0.0004
     17 C         144.9023  142.3026  162.4560 C.3     1  UNL1        0.1467
     18 C         144.2935  141.4102  161.4155 C.3     1  UNL1        0.0489
     19 C         144.7831  142.5291  160.5448 C.3     1  UNL1        0.0238
     20 C         144.5673  142.4747  159.0614 C.3     1  UNL1        0.0725
     21 N         143.8618  141.3012  158.4487 N.3     1  UNL1       -0.2715
     22 C         143.6460  141.2467  156.9654 C.3     1  UNL1        0.0896
     23 C         143.3722  140.1822  159.3194 C.3     1  UNL1        0.0725
     24 C         143.5880  140.2367  160.8028 C.3     1  UNL1        0.0238
     25 C         144.0153  140.6011  162.6476 C.ar    1  UNL1       -0.0202
     26 C         142.6091  140.1964  162.9774 C.ar    1  UNL1       -0.0019
     27 C         142.3310  139.3873  164.2096 C.ar    1  UNL1        0.0293
     28 C         143.4590  138.9830  165.1118 C.ar    1  UNL1        0.1401
     29 F         143.1809  138.1740  166.3439 F       1  UNL1       -0.2042
     30 C         144.8652  139.3878  164.7820 C.ar    1  UNL1        0.0293
     31 C         145.1433  140.1968  163.5499 C.ar    1  UNL1       -0.0019
@<TRIPOS>BOND
     1    14    15    1
     2    15    16    1
     3    15    13    1
     4    13     3    1
     5     3     4   ar
     6     4     5   ar
     7     5     9    1
     8     9    10    1
     9     9    11    1
    10     9    12    1
    11     5     6   ar
    12     6     7   ar
    13     7     2    1
    14     2     1    1
    15     1    17    1
    16    17    18    1
    17    18    25    1
    18    25    26   ar
    19    26    27   ar
    20    27    28   ar
    21    28    29    1
    22    28    30   ar
    23    30    31   ar
    24    18    19    1
    25    19    20    1
    26    20    21    1
    27    21    22    1
    28    21    23    1
    29    23    24    1
    30     7     8   ar
    31     8     3   ar
    32    24    18    1
    33    31    25   ar
@<TRIPOS>MOLECULE
*****
 31 33 0 0 0
SMALL
GASTEIGER

@<TRIPOS>ATOM
      1 O         138.5401  139.2454  162.8380 O.3     1  UNL1       -0.3470
      2 C         138.4760  138.6090  164.1947 C.3     1  UNL1        0.1874
      3 C         141.8717  139.4138  166.0846 C.ar    1  UNL1        0.0586
      4 C         141.3534  139.8780  167.4134 C.ar    1  UNL1        0.0186
      5 C         139.8759  139.9192  167.6694 C.ar    1  UNL1        0.0738
      6 C         138.9168  139.4962  166.5965 C.ar    1  UNL1        0.0211
      7 C         139.4351  139.0320  165.2677 C.ar    1  UNL1        0.0883
      8 N         140.9125  138.9908  165.0117 N.ar    1  UNL1       -0.2515
      9 C         139.3577  140.3834  168.9983 C.3     1  UNL1        0.4187
     10 F         138.8394  140.8476  170.3272 F       1  UNL1       -0.1659
     11 F         140.5638  141.2599  169.1625 F       1  UNL1       -0.1659
     12 F         138.1515  139.5070  168.8341 F       1  UNL1       -0.1659
     13 C         143.3491  139.3727  165.8286 C.3     1  UNL1        0.0458
     14 C         143.7810  141.8386  165.1340 C.3     1  UNL1        0.0004
     15 C         143.9776  140.3699  164.9011 C.3     1  UNL1        0.0059
     16 C         144.8029  139.8985  163.7405 C.3     1  UNL1        0.0004
     17 C         138.7348  140.7275  162.7131 C.3     1  UNL1        0.1467
     18 C         140.0918  141.2815  162.3944 C.3     1  UNL1        0.0489
     19 C         140.1185  140.0327  161.5639 C.3     1  UNL1        0.0238
     20 C         141.3293  139.7047  160.7415 C.3     1  UNL1        0.0725
     21 N         142.5134  140.6256  160.7496 N.3     1  UNL1       -0.2715
     22 C         143.7242  140.2977  159.9272 C.3     1  UNL1        0.0896
     23 C         142.4867  141.8744  161.5801 C.3     1  UNL1        0.0725
     24 C         141.2759  142.2023  162.4026 C.3     1  UNL1        0.0238
     25 C         139.5937  142.3379  163.3357 C.ar    1  UNL1       -0.0202
     26 C         138.4533  143.2247  162.9321 C.ar    1  UNL1       -0.0019
     27 C         137.9552  144.2812  163.8733 C.ar    1  UNL1        0.0293
     28 C         138.5975  144.4507  165.2181 C.ar    1  UNL1        0.1401
     29 F         138.0995  145.5071  166.1594 F       1  UNL1       -0.2042
     30 C         139.7381  143.5638  165.6218 C.ar    1  UNL1        0.0293
     31 C         140.2361  142.5075  164.6805 C.ar    1  UNL1       -0.0019
@<TRIPOS>BOND
     1    14    15    1
     2    15    16    1
     3    15    13    1
     4    13     3    1
     5     3     4   ar
     6     4     5   ar
     7     5     9    1
     8     9    10    1
     9     9    11    1
    10     9    12    1
    11     5     6   ar
    12     6     7   ar
    13     7     2    1
    14     2     1    1
    15     1    17    1
    16    17    18    1
    17    18    25    1
    18    25    26   ar
    19    26    27   ar
    20    27    28   ar
    21    28    29    1
    22    28    30   ar
    23    30    31   ar
    24    18    19    1
    25    19    20    1
    26    20    21    1
    27    21    22    1
    28    21    23    1
    29    23    24    1
    30     7     8   ar
    31     8     3   ar
    32    24    18    1
    33    31    25   ar
@<TRIPOS>MOLECULE
*****
 31 33 0 0 0
SMALL
GASTEIGER

@<TRIPOS>ATOM
      1 O         139.2827  139.9706  165.5274 O.3     1  UNL1       -0.3470
      2 C         139.2360  139.7459  164.0451 C.3     1  UNL1        0.1874
      3 C         142.6145  140.7464  162.2189 C.ar    1  UNL1        0.0586
      4 C         142.1446  141.8779  161.3535 C.ar    1  UNL1        0.0186
      5 C         140.7052  142.2987  161.3853 C.ar    1  UNL1        0.0738
      6 C         139.7357  141.5881  162.2825 C.ar    1  UNL1        0.0211
      7 C         140.2056  140.4566  163.1479 C.ar    1  UNL1        0.0883
      8 N         141.6450  140.0357  163.1161 N.ar    1  UNL1       -0.2515
      9 C         140.2353  143.4303  160.5199 C.3     1  UNL1        0.4187
     10 F         139.7654  144.5618  159.6545 F       1  UNL1       -0.1659
     11 F         138.8605  142.8316  160.4836 F       1  UNL1       -0.1659
     12 F         141.6101  144.0290  160.5562 F       1  UNL1       -0.1659
     13 C         144.0539  140.3255  162.1870 C.3     1  UNL1        0.0458
     14 C         145.6848  141.7842  163.5878 C.3     1  UNL1        0.0004
     15 C         144.9162  140.5098  163.4005 C.3     1  UNL1        0.0059
     16 C         145.0099  139.4197  164.4266 C.3     1  UNL1        0.0004
     17 C         139.5282  141.3474  166.0699 C.3     1  UNL1        0.1467
     18 C         140.7445  141.6188  166.9047 C.3     1  UNL1        0.0489
     19 C         140.1855  140.4345  167.6361 C.3     1  UNL1        0.0238
     20 C         140.8902  139.9001  168.8475 C.3     1  UNL1        0.0725
     21 N         142.1541  140.5500  169.3277 N.3     1  UNL1       -0.2715
     22 C         142.8588  140.0155  170.5391 C.3     1  UNL1        0.0896
     23 C         142.7131  141.7342  168.5963 C.3     1  UNL1        0.0725
     24 C         142.0084  142.2687  167.3848 C.3     1  UNL1        0.0238
     25 C         140.8811  142.7089  165.8834 C.ar    1  UNL1       -0.0202
     26 C         142.2010  142.9457  165.2112 C.ar    1  UNL1       -0.0019
     27 C         142.3376  144.0358  164.1898 C.ar    1  UNL1        0.0293
     28 C         141.1544  144.8890  163.8407 C.ar    1  UNL1        0.1401
     29 F         141.2909  145.9791  162.8194 F       1  UNL1       -0.2042
     30 C         139.8345  144.6522  164.5130 C.ar    1  UNL1        0.0293
     31 C         139.6979  143.5621  165.5342 C.ar    1  UNL1       -0.0019
@<TRIPOS>BOND
     1    14    15    1
     2    15    16    1
     3    15    13    1
     4    13     3    1
     5     3     4   ar
     6     4     5   ar
     7     5     9    1
     8     9    10    1
     9     9    11    1
    10     9    12    1
    11     5     6   ar
    12     6     7   ar
    13     7     2    1
    14     2     1    1
    15     1    17    1
    16    17    18    1
    17    18    25    1
    18    25    26   ar
    19    26    27   ar
    20    27    28   ar
    21    28    29    1
    22    28    30   ar
    23    30    31   ar
    24    18    19    1
    25    19    20    1
    26    20    21    1
    27    21    22    1
    28    21    23    1
    29    23    24    1
    30     7     8   ar
    31     8     3   ar
    32    24    18    1
    33    31    25   ar
@<TRIPOS>MOLECULE
*****
 31 33 0 0 0
SMALL
GASTEIGER

@<TRIPOS>ATOM
      1 O         139.5232  144.4408  164.1772 O.3     1  UNL1       -0.3470
      2 C         139.1215  143.9192  165.5250 C.3     1  UNL1        0.1874
      3 C         139.7231  140.0371  166.0881 C.ar    1  UNL1        0.0586
      4 C         140.8670  140.0652  167.0579 C.ar    1  UNL1        0.0186
      5 C         141.4291  141.3781  167.5168 C.ar    1  UNL1        0.0738
      6 C         140.8473  142.6627  167.0058 C.ar    1  UNL1        0.0211
      7 C         139.7034  142.6345  166.0360 C.ar    1  UNL1        0.0883
      8 N         139.1413  141.3217  165.5772 N.ar    1  UNL1       -0.2515
      9 C         142.5731  141.4062  168.4867 C.3     1  UNL1        0.4187
     10 F         143.7171  141.4342  169.4564 F       1  UNL1       -0.1659
     11 F         142.9576  140.0165  168.0733 F       1  UNL1       -0.1659
     12 F         142.1886  142.7958  168.9000 F       1  UNL1       -0.1659
     13 C         139.1609  138.7243  165.6293 C.3     1  UNL1        0.0458
     14 C         139.0890  138.1409  163.0986 C.3     1  UNL1        0.0004
     15 C         139.7532  138.0298  164.4390 C.3     1  UNL1        0.0059
     16 C         141.0096  137.2242  164.5890 C.3     1  UNL1        0.0004
     17 C         140.9699  144.4605  163.7812 C.3     1  UNL1        0.1467
     18 C         141.3675  144.1196  162.3757 C.3     1  UNL1        0.0489
     19 C         140.5108  145.3238  162.1193 C.3     1  UNL1        0.0238
     20 C         140.3012  145.8100  160.7158 C.3     1  UNL1        0.0725
     21 N         140.9484  145.0920  159.5688 N.3     1  UNL1       -0.2715
     22 C         140.7388  145.5783  158.1654 C.3     1  UNL1        0.0896
     23 C         141.8051  143.8878  159.8252 C.3     1  UNL1        0.0725
     24 C         142.0147  143.4015  161.2287 C.3     1  UNL1        0.0238
     25 C         142.0862  143.0337  163.1203 C.ar    1  UNL1       -0.0202
     26 C         141.7071  141.5986  162.9041 C.ar    1  UNL1       -0.0019
     27 C         142.4258  140.5127  163.6488 C.ar    1  UNL1        0.0293
     28 C         143.5235  140.8619  164.6095 C.ar    1  UNL1        0.1401
     29 F         144.2421  139.7761  165.3541 F       1  UNL1       -0.2042
     30 C         143.9026  142.2971  164.8256 C.ar    1  UNL1        0.0293
     31 C         143.1839  143.3829  164.0810 C.ar    1  UNL1       -0.0019
@<TRIPOS>BOND
     1    14    15    1
     2    15    16    1
     3    15    13    1
     4    13     3    1
     5     3     4   ar
     6     4     5   ar
     7     5     9    1
     8     9    10    1
     9     9    11    1
    10     9    12    1
    11     5     6   ar
    12     6     7   ar
    13     7     2    1
    14     2     1    1
    15     1    17    1
    16    17    18    1
    17    18    25    1
    18    25    26   ar
    19    26    27   ar
    20    27    28   ar
    21    28    29    1
    22    28    30   ar
    23    30    31   ar
    24    18    19    1
    25    19    20    1
    26    20    21    1
    27    21    22    1
    28    21    23    1
    29    23    24    1
    30     7     8   ar
    31     8     3   ar
    32    24    18    1
    33    31    25   ar
