@<TRIPOS>MOLECULE
*****
 32 35 0 0 0
SMALL
GASTEIGER

@<TRIPOS>ATOM
      1 C         142.6101  137.9479  158.1806 C.ar    1  UNL1        0.0505
      2 C         142.9888  137.6071  159.5913 C.ar    1  UNL1        0.0148
      3 C         143.4587  138.6847  160.5229 C.ar    1  UNL1        0.0060
      4 C         143.5499  140.1032  160.0437 C.ar    1  UNL1        0.0553
      5 C         143.1712  140.4440  158.6329 C.ar    1  UNL1        0.0060
      6 C         142.7013  139.3664  157.7013 C.ar    1  UNL1        0.0148
      7 C         144.0198  141.1808  160.9753 C.ar    1  UNL1        0.2512
      8 N         145.0189  141.0157  162.0820 N.ar    1  UNL1       -0.1058
      9 N         145.1898  142.3455  162.7545 N.ar    1  UNL1       -0.0923
     10 C         144.2963  143.3326  162.0634 C.ar    1  UNL1        0.3086
     11 O         143.5733  142.6127  160.9639 O.2     1  UNL1       -0.4048
     12 N         144.1513  144.7846  162.4110 N.pl3   1  UNL1       -0.2871
     13 H         144.4088  145.4751  161.7582 H       1  UNL1        0.1512
     14 C         143.6140  145.1845  163.7531 C.3     1  UNL1        0.0925
     15 C         142.1609  145.5226  163.9089 C.3     1  UNL1        0.0386
     16 C         141.1775  145.1094  162.8543 C.3     1  UNL1        0.0738
     17 N         139.8292  144.5850  163.2503 N.3     1  UNL1       -0.2726
     18 C         139.1821  144.7420  164.5944 C.3     1  UNL1        0.0721
     19 C         137.8441  144.0656  164.5466 C.3     1  UNL1        0.0188
     20 C         137.6642  143.4906  163.1729 C.3     1  UNL1        0.0188
     21 C         138.8911  143.8116  162.3718 C.3     1  UNL1        0.0721
     22 O         144.3986  136.9907  155.9703 O.2     1  UNL1       -0.2697
     23 C         143.0344  136.3917  156.1438 C.2     1  UNL1        0.2517
     24 N         142.1401  136.8702  157.2489 N.am    1  UNL1       -0.2803
     25 H         141.2448  136.4771  157.3628 H       1  UNL1        0.1552
     26 C         142.5644  135.3140  155.2122 C.ar    1  UNL1        0.0811
     27 C         142.2818  135.6360  153.7747 C.ar    1  UNL1        0.0068
     28 C         141.8119  134.5584  152.8431 C.ar    1  UNL1        0.0003
     29 C         141.6246  133.1588  153.3491 C.ar    1  UNL1        0.0023
     30 C         141.9072  132.8368  154.7866 C.ar    1  UNL1        0.0298
     31 C         142.3771  133.9144  155.7181 C.ar    1  UNL1        0.1445
     32 F         142.6597  133.5924  157.1557 F       1  UNL1       -0.2040
@<TRIPOS>BOND
     1    22    23    2
     2    23    24   am
     3    24     1    1
     4     1     2   ar
     5     2     3   ar
     6     3     4   ar
     7     4     7    1
     8     7     8   ar
     9     8     9   ar
    10     9    10   ar
    11    10    12    1
    12    12    14    1
    13    14    15    1
    14    15    16    1
    15    16    17    1
    16    17    18    1
    17    18    19    1
    18    19    20    1
    19    20    21    1
    20    10    11   ar
    21     4     5   ar
    22     5     6   ar
    23    23    26    1
    24    26    27   ar
    25    27    28   ar
    26    28    29   ar
    27    29    30   ar
    28    30    31   ar
    29    31    32    1
    30     6     1   ar
    31    31    26   ar
    32    11     7   ar
    33    21    17    1
    34    24    25    1
    35    12    13    1
@<TRIPOS>MOLECULE
*****
 32 35 0 0 0
SMALL
GASTEIGER

@<TRIPOS>ATOM
      1 C         139.1149  138.5880  162.4944 C.ar    1  UNL1        0.0505
      2 C         139.5817  137.5533  163.4749 C.ar    1  UNL1        0.0148
      3 C         139.4194  137.7883  164.9474 C.ar    1  UNL1        0.0060
      4 C         138.7904  139.0580  165.4394 C.ar    1  UNL1        0.0553
      5 C         138.3236  140.0927  164.4589 C.ar    1  UNL1        0.0060
      6 C         138.4859  139.8577  162.9864 C.ar    1  UNL1        0.0148
      7 C         138.6281  139.2930  166.9121 C.ar    1  UNL1        0.2512
      8 N         137.6303  138.6203  167.8075 N.ar    1  UNL1       -0.1058
      9 N         137.8206  139.1535  169.1966 N.ar    1  UNL1       -0.0923
     10 C         138.9361  140.1556  169.1596 C.ar    1  UNL1        0.3086
     11 O         139.4352  140.2418  167.7477 O.2     1  UNL1       -0.4048
     12 N         139.4605  140.9348  170.3292 N.pl3   1  UNL1       -0.2871
     13 H         138.9120  141.6457  170.7329 H       1  UNL1        0.1512
     14 C         140.8207  140.6308  170.8838 C.3     1  UNL1        0.0925
     15 C         141.7935  139.8186  170.0813 C.3     1  UNL1        0.0386
     16 C         142.7744  140.5028  169.1760 C.3     1  UNL1        0.0738
     17 N         142.8063  140.1675  167.7144 N.3     1  UNL1       -0.2726
     18 C         142.6085  141.1333  166.5838 C.3     1  UNL1        0.0721
     19 C         142.7215  140.3703  165.2972 C.3     1  UNL1        0.0188
     20 C         142.9890  138.9329  165.6327 C.3     1  UNL1        0.0188
     21 C         143.0414  138.8077  167.1266 C.3     1  UNL1        0.0721
     22 O         141.5135  139.6750  161.0572 O.2     1  UNL1       -0.2697
     23 C         140.4765  138.8965  160.3032 C.2     1  UNL1        0.2517
     24 N         139.2772  138.3530  161.0218 N.am    1  UNL1       -0.2803
     25 H         138.5966  137.8420  160.5269 H       1  UNL1        0.1552
     26 C         140.6387  138.6615  158.8306 C.ar    1  UNL1        0.0811
     27 C         139.5354  139.0349  157.8855 C.ar    1  UNL1        0.0068
     28 C         139.6977  138.7999  156.4130 C.ar    1  UNL1        0.0003
     29 C         140.9633  138.1915  155.8855 C.ar    1  UNL1        0.0023
     30 C         142.0666  137.8181  156.8307 C.ar    1  UNL1        0.0298
     31 C         141.9043  138.0531  158.3032 C.ar    1  UNL1        0.1445
     32 F         143.0076  137.6797  159.2484 F       1  UNL1       -0.2040
@<TRIPOS>BOND
     1    22    23    2
     2    23    24   am
     3    24     1    1
     4     1     2   ar
     5     2     3   ar
     6     3     4   ar
     7     4     7    1
     8     7     8   ar
     9     8     9   ar
    10     9    10   ar
    11    10    12    1
    12    12    14    1
    13    14    15    1
    14    15    16    1
    15    16    17    1
    16    17    18    1
    17    18    19    1
    18    19    20    1
    19    20    21    1
    20    10    11   ar
    21     4     5   ar
    22     5     6   ar
    23    23    26    1
    24    26    27   ar
    25    27    28   ar
    26    28    29   ar
    27    29    30   ar
    28    30    31   ar
    29    31    32    1
    30     6     1   ar
    31    31    26   ar
    32    11     7   ar
    33    21    17    1
    34    24    25    1
    35    12    13    1
@<TRIPOS>MOLECULE
*****
 32 35 0 0 0
SMALL
GASTEIGER

@<TRIPOS>ATOM
      1 C         141.9148  138.2978  162.8152 C.ar    1  UNL1        0.0505
      2 C         140.8398  138.4129  161.7755 C.ar    1  UNL1        0.0148
      3 C         141.1922  138.3286  160.3200 C.ar    1  UNL1        0.0060
      4 C         142.6195  138.1291  159.9041 C.ar    1  UNL1        0.0553
      5 C         143.6945  138.0139  160.9438 C.ar    1  UNL1        0.0060
      6 C         143.3422  138.0982  162.3994 C.ar    1  UNL1        0.0148
      7 C         142.9718  138.0448  158.4485 C.ar    1  UNL1        0.2512
      8 N         143.4844  139.1697  157.5988 N.ar    1  UNL1       -0.1058
      9 N         143.7028  138.6410  156.2122 N.ar    1  UNL1       -0.0923
     10 C         143.3251  137.1892  156.2049 C.ar    1  UNL1        0.3086
     11 O         142.8734  136.8208  157.5869 O.2     1  UNL1       -0.4048
     12 N         143.3882  136.2678  155.0229 N.pl3   1  UNL1       -0.2871
     13 H         144.2497  136.0947  154.5791 H       1  UNL1        0.1512
     14 C         142.1385  135.6100  154.5173 C.3     1  UNL1        0.0925
     15 C         141.4679  134.5457  155.3342 C.3     1  UNL1        0.0386
     16 C         142.0083  133.1464  155.3320 C.3     1  UNL1        0.0738
     17 N         143.2007  132.8016  156.1740 N.3     1  UNL1       -0.2726
     18 C         143.5849  133.4555  157.4682 C.3     1  UNL1        0.0721
     19 C         144.8400  132.8004  157.9639 C.3     1  UNL1        0.0188
     20 C         145.2315  131.7417  156.9760 C.3     1  UNL1        0.0188
     21 C         144.2183  131.7425  155.8699 C.3     1  UNL1        0.0721
     22 O         142.4091  140.8375  164.3336 O.2     1  UNL1       -0.2697
     23 C         141.8097  139.6519  165.0300 C.2     1  UNL1        0.2517
     24 N         141.5625  138.3821  164.2709 N.am    1  UNL1       -0.2803
     25 H         141.1691  137.6039  164.7280 H       1  UNL1        0.1552
     26 C         141.4574  139.7363  166.4857 C.ar    1  UNL1        0.0811
     27 C         142.5155  139.5222  167.5270 C.ar    1  UNL1        0.0068
     28 C         142.1631  139.6065  168.9826 C.ar    1  UNL1        0.0003
     29 C         140.7527  139.9049  169.3968 C.ar    1  UNL1        0.0023
     30 C         139.6946  140.1190  168.3554 C.ar    1  UNL1        0.0298
     31 C         140.0469  140.0347  166.8999 C.ar    1  UNL1        0.1445
     32 F         138.9887  140.2488  165.8584 F       1  UNL1       -0.2040
@<TRIPOS>BOND
     1    22    23    2
     2    23    24   am
     3    24     1    1
     4     1     2   ar
     5     2     3   ar
     6     3     4   ar
     7     4     7    1
     8     7     8   ar
     9     8     9   ar
    10     9    10   ar
    11    10    12    1
    12    12    14    1
    13    14    15    1
    14    15    16    1
    15    16    17    1
    16    17    18    1
    17    18    19    1
    18    19    20    1
    19    20    21    1
    20    10    11   ar
    21     4     5   ar
    22     5     6   ar
    23    23    26    1
    24    26    27   ar
    25    27    28   ar
    26    28    29   ar
    27    29    30   ar
    28    30    31   ar
    29    31    32    1
    30     6     1   ar
    31    31    26   ar
    32    11     7   ar
    33    21    17    1
    34    24    25    1
    35    12    13    1
@<TRIPOS>MOLECULE
*****
 32 35 0 0 0
SMALL
GASTEIGER

@<TRIPOS>ATOM
      1 C         143.3542  139.5091  164.2849 C.ar    1  UNL1        0.0505
      2 C         144.2678  140.3339  163.4277 C.ar    1  UNL1        0.0148
      3 C         144.2711  140.1474  161.9393 C.ar    1  UNL1        0.0060
      4 C         143.3607  139.1360  161.3082 C.ar    1  UNL1        0.0553
      5 C         142.4470  138.3112  162.1654 C.ar    1  UNL1        0.0060
      6 C         142.4438  138.4977  163.6538 C.ar    1  UNL1        0.0148
      7 C         143.3639  138.9495  159.8198 C.ar    1  UNL1        0.2512
      8 N         144.0945  139.8030  158.8259 N.ar    1  UNL1       -0.1058
      9 N         143.8193  139.2578  157.4559 N.ar    1  UNL1       -0.0923
     10 C         142.9187  138.0673  157.6031 C.ar    1  UNL1        0.3086
     11 O         142.6373  137.8768  159.0641 O.2     1  UNL1       -0.4048
     12 N         142.3920  137.2167  156.4855 N.pl3   1  UNL1       -0.2871
     13 H         141.4209  137.1098  156.3638 H       1  UNL1        0.1512
     14 C         143.3449  136.5289  155.5532 C.3     1  UNL1        0.0925
     15 C         143.8655  135.1623  155.8868 C.3     1  UNL1        0.0386
     16 C         143.2692  134.3900  157.0261 C.3     1  UNL1        0.0738
     17 N         143.6869  132.9702  157.2698 N.3     1  UNL1       -0.2726
     18 C         144.9564  132.5263  157.9340 C.3     1  UNL1        0.0721
     19 C         144.9626  131.0266  157.9667 C.3     1  UNL1        0.0188
     20 C         143.6968  130.5437  157.3227 C.3     1  UNL1        0.0188
     21 C         142.9084  131.7449  156.8920 C.3     1  UNL1        0.0721
     22 O         141.2375  141.1944  165.5808 O.2     1  UNL1       -0.2697
     23 C         142.2926  140.5382  166.4212 C.2     1  UNL1        0.2517
     24 N         143.3509  139.6956  165.7733 N.am    1  UNL1       -0.2803
     25 H         144.0434  139.2650  166.3249 H       1  UNL1        0.1552
     26 C         142.2893  140.7248  167.9096 C.ar    1  UNL1        0.0811
     27 C         141.5076  139.7872  168.7813 C.ar    1  UNL1        0.0068
     28 C         141.5044  139.9737  170.2696 C.ar    1  UNL1        0.0003
     29 C         142.2828  141.0978  170.8863 C.ar    1  UNL1        0.0023
     30 C         143.0645  142.0354  170.0146 C.ar    1  UNL1        0.0298
     31 C         143.0678  141.8489  168.5263 C.ar    1  UNL1        0.1445
     32 F         143.8495  142.7865  167.6546 F       1  UNL1       -0.2040
@<TRIPOS>BOND
     1    22    23    2
     2    23    24   am
     3    24     1    1
     4     1     2   ar
     5     2     3   ar
     6     3     4   ar
     7     4     7    1
     8     7     8   ar
     9     8     9   ar
    10     9    10   ar
    11    10    12    1
    12    12    14    1
    13    14    15    1
    14    15    16    1
    15    16    17    1
    16    17    18    1
    17    18    19    1
    18    19    20    1
    19    20    21    1
    20    10    11   ar
    21     4     5   ar
    22     5     6   ar
    23    23    26    1
    24    26    27   ar
    25    27    28   ar
    26    28    29   ar
    27    29    30   ar
    28    30    31   ar
    29    31    32    1
    30     6     1   ar
    31    31    26   ar
    32    11     7   ar
    33    21    17    1
    34    24    25    1
    35    12    13    1
@<TRIPOS>MOLECULE
*****
 32 35 0 0 0
SMALL
GASTEIGER

@<TRIPOS>ATOM
      1 C         139.0475  141.1222  164.5667 C.ar    1  UNL1        0.0505
      2 C         137.9146  141.9651  164.0606 C.ar    1  UNL1        0.0148
      3 C         137.7452  142.1871  162.5869 C.ar    1  UNL1        0.0060
      4 C         138.7085  141.5662  161.6192 C.ar    1  UNL1        0.0553
      5 C         139.8414  140.7233  162.1253 C.ar    1  UNL1        0.0060
      6 C         140.0108  140.5013  163.5990 C.ar    1  UNL1        0.0148
      7 C         138.5390  141.7882  160.1454 C.ar    1  UNL1        0.2512
      8 N         138.0101  140.7900  159.1585 N.ar    1  UNL1       -0.1058
      9 N         138.0128  141.4322  157.8029 N.ar    1  UNL1       -0.0923
     10 C         138.5434  142.8273  157.9521 C.ar    1  UNL1        0.3086
     11 O         138.8686  143.0473  159.3998 O.2     1  UNL1       -0.4048
     12 N         138.7182  143.8270  156.8474 N.pl3   1  UNL1       -0.2871
     13 H         138.0149  143.9369  156.1672 H       1  UNL1        0.1512
     14 C         139.9643  144.6591  156.7791 C.3     1  UNL1        0.0925
     15 C         140.2390  145.6866  157.8368 C.3     1  UNL1        0.0386
     16 C         141.3681  145.4846  158.8033 C.3     1  UNL1        0.0738
     17 N         141.0779  145.2145  160.2499 N.3     1  UNL1       -0.2726
     18 C         141.7756  144.2080  161.1161 C.3     1  UNL1        0.0721
     19 C         141.1679  144.2748  162.4860 C.3     1  UNL1        0.0188
     20 C         140.0946  145.3226  162.4663 C.3     1  UNL1        0.0188
     21 C         140.0391  145.9032  161.0843 C.3     1  UNL1        0.0721
     22 O         141.2161  142.5594  166.0605 O.2     1  UNL1       -0.2697
     23 C         140.3013  141.6188  166.7874 C.2     1  UNL1        0.2517
     24 N         139.2170  140.9002  166.0405 N.am    1  UNL1       -0.2803
     25 H         138.6166  140.2828  166.5176 H       1  UNL1        0.1552
     26 C         140.4708  141.3968  168.2612 C.ar    1  UNL1        0.0811
     27 C         140.7584  140.0206  168.7842 C.ar    1  UNL1        0.0068
     28 C         140.9279  139.7987  170.2579 C.ar    1  UNL1        0.0003
     29 C         140.8098  140.9529  171.2087 C.ar    1  UNL1        0.0023
     30 C         140.5223  142.3290  170.6857 C.ar    1  UNL1        0.0298
     31 C         140.3528  142.5509  169.2120 C.ar    1  UNL1        0.1445
     32 F         140.0652  143.9271  168.6889 F       1  UNL1       -0.2040
@<TRIPOS>BOND
     1    22    23    2
     2    23    24   am
     3    24     1    1
     4     1     2   ar
     5     2     3   ar
     6     3     4   ar
     7     4     7    1
     8     7     8   ar
     9     8     9   ar
    10     9    10   ar
    11    10    12    1
    12    12    14    1
    13    14    15    1
    14    15    16    1
    15    16    17    1
    16    17    18    1
    17    18    19    1
    18    19    20    1
    19    20    21    1
    20    10    11   ar
    21     4     5   ar
    22     5     6   ar
    23    23    26    1
    24    26    27   ar
    25    27    28   ar
    26    28    29   ar
    27    29    30   ar
    28    30    31   ar
    29    31    32    1
    30     6     1   ar
    31    31    26   ar
    32    11     7   ar
    33    21    17    1
    34    24    25    1
    35    12    13    1
@<TRIPOS>MOLECULE
*****
 32 35 0 0 0
SMALL
GASTEIGER

@<TRIPOS>ATOM
      1 C         142.2198  138.0647  157.8600 C.ar    1  UNL1        0.0505
      2 C         141.8879  139.4169  157.3020 C.ar    1  UNL1        0.0148
      3 C         142.2293  140.6534  158.0794 C.ar    1  UNL1        0.0060
      4 C         142.9027  140.5377  159.4148 C.ar    1  UNL1        0.0553
      5 C         143.2347  139.1855  159.9727 C.ar    1  UNL1        0.0060
      6 C         142.8933  137.9490  159.1953 C.ar    1  UNL1        0.0148
      7 C         143.2442  141.7743  160.1922 C.ar    1  UNL1        0.2512
      8 N         144.6264  142.2557  160.5206 N.ar    1  UNL1       -0.1058
      9 N         144.4999  143.5255  161.3090 N.ar    1  UNL1       -0.0923
     10 C         143.0394  143.8289  161.4679 C.ar    1  UNL1        0.3086
     11 O         142.2634  142.7466  160.7777 O.2     1  UNL1       -0.4048
     12 N         142.4573  145.0076  162.1903 N.pl3   1  UNL1       -0.2871
     13 H         141.9776  145.7051  161.6876 H       1  UNL1        0.1512
     14 C         142.6059  145.1235  163.6783 C.3     1  UNL1        0.0925
     15 C         143.9191  144.8021  164.3282 C.3     1  UNL1        0.0386
     16 C         144.0568  143.5689  165.1711 C.3     1  UNL1        0.0738
     17 N         144.1071  142.2181  164.5212 N.3     1  UNL1       -0.2726
     18 C         142.9248  141.3665  164.1650 C.3     1  UNL1        0.0721
     19 C         143.4354  140.1035  163.5370 C.3     1  UNL1        0.0188
     20 C         144.9334  140.1746  163.5051 C.3     1  UNL1        0.0188
     21 C         145.3485  141.4815  164.1134 C.3     1  UNL1        0.0721
     22 O         144.2296  136.8732  155.9781 O.2     1  UNL1       -0.2697
     23 C         142.8833  136.2324  156.1417 C.2     1  UNL1        0.2517
     24 N         141.8784  136.8281  157.0825 N.am    1  UNL1       -0.2803
     25 H         140.9948  136.4075  157.1899 H       1  UNL1        0.1552
     26 C         142.5418  134.9958  155.3642 C.ar    1  UNL1        0.0811
     27 C         142.2194  135.0939  153.9026 C.ar    1  UNL1        0.0068
     28 C         141.8780  133.8573  153.1253 C.ar    1  UNL1        0.0003
     29 C         141.8590  132.5226  153.8096 C.ar    1  UNL1        0.0023
     30 C         142.1814  132.4245  155.2712 C.ar    1  UNL1        0.0298
     31 C         142.5228  133.6611  156.0485 C.ar    1  UNL1        0.1445
     32 F         142.8453  133.5630  157.5102 F       1  UNL1       -0.2040
@<TRIPOS>BOND
     1    22    23    2
     2    23    24   am
     3    24     1    1
     4     1     2   ar
     5     2     3   ar
     6     3     4   ar
     7     4     7    1
     8     7     8   ar
     9     8     9   ar
    10     9    10   ar
    11    10    12    1
    12    12    14    1
    13    14    15    1
    14    15    16    1
    15    16    17    1
    16    17    18    1
    17    18    19    1
    18    19    20    1
    19    20    21    1
    20    10    11   ar
    21     4     5   ar
    22     5     6   ar
    23    23    26    1
    24    26    27   ar
    25    27    28   ar
    26    28    29   ar
    27    29    30   ar
    28    30    31   ar
    29    31    32    1
    30     6     1   ar
    31    31    26   ar
    32    11     7   ar
    33    21    17    1
    34    24    25    1
    35    12    13    1
@<TRIPOS>MOLECULE
*****
 32 35 0 0 0
SMALL
GASTEIGER

@<TRIPOS>ATOM
      1 C         140.1493  143.4172  164.8862 C.ar    1  UNL1        0.0505
      2 C         141.3822  143.9565  164.2237 C.ar    1  UNL1        0.0148
      3 C         141.3663  144.2794  162.7590 C.ar    1  UNL1        0.0060
      4 C         140.1175  144.0631  161.9567 C.ar    1  UNL1        0.0553
      5 C         138.8845  143.5238  162.6192 C.ar    1  UNL1        0.0060
      6 C         138.9004  143.2009  164.0839 C.ar    1  UNL1        0.0148
      7 C         140.1016  144.3861  160.4920 C.ar    1  UNL1        0.2512
      8 N         139.3011  143.6755  159.4411 N.ar    1  UNL1       -0.1058
      9 N         139.5882  144.3266  158.1205 N.ar    1  UNL1       -0.0923
     10 C         140.5662  145.4395  158.3554 C.ar    1  UNL1        0.3086
     11 O         140.8835  145.4762  159.8209 O.2     1  UNL1       -0.4048
     12 N         141.1282  146.3549  157.3083 N.pl3   1  UNL1       -0.2871
     13 H         141.2401  147.3137  157.5015 H       1  UNL1        0.1512
     14 C         141.5196  145.8094  155.9670 C.3     1  UNL1        0.0925
     15 C         140.5785  145.9289  154.8051 C.3     1  UNL1        0.0386
     16 C         139.2299  146.5578  154.9938 C.3     1  UNL1        0.0738
     17 N         139.1138  148.0414  155.1814 N.3     1  UNL1       -0.2726
     18 C         138.4779  148.7353  156.3494 C.3     1  UNL1        0.0721
     19 C         138.5843  150.2145  156.1238 C.3     1  UNL1        0.0188
     20 C         139.2860  150.4348  154.8165 C.3     1  UNL1        0.0188
     21 C         139.6132  149.0917  154.2341 C.3     1  UNL1        0.0721
     22 O         141.1111  140.7335  165.8202 O.2     1  UNL1       -0.2697
     23 C         140.6460  141.7524  166.8179 C.2     1  UNL1        0.2517
     24 N         140.1651  143.0943  166.3509 N.am    1  UNL1       -0.2803
     25 H         139.8599  143.7630  167.0058 H       1  UNL1        0.1552
     26 C         140.6619  141.4295  168.2827 C.ar    1  UNL1        0.0811
     27 C         139.5972  140.5501  168.8684 C.ar    1  UNL1        0.0068
     28 C         139.6131  140.2271  170.3331 C.ar    1  UNL1        0.0003
     29 C         140.6937  140.7836  171.2121 C.ar    1  UNL1        0.0023
     30 C         141.7583  141.6630  170.6265 C.ar    1  UNL1        0.0298
     31 C         141.7425  141.9859  169.1617 C.ar    1  UNL1        0.1445
     32 F         142.8072  142.8654  168.5760 F       1  UNL1       -0.2040
@<TRIPOS>BOND
     1    22    23    2
     2    23    24   am
     3    24     1    1
     4     1     2   ar
     5     2     3   ar
     6     3     4   ar
     7     4     7    1
     8     7     8   ar
     9     8     9   ar
    10     9    10   ar
    11    10    12    1
    12    12    14    1
    13    14    15    1
    14    15    16    1
    15    16    17    1
    16    17    18    1
    17    18    19    1
    18    19    20    1
    19    20    21    1
    20    10    11   ar
    21     4     5   ar
    22     5     6   ar
    23    23    26    1
    24    26    27   ar
    25    27    28   ar
    26    28    29   ar
    27    29    30   ar
    28    30    31   ar
    29    31    32    1
    30     6     1   ar
    31    31    26   ar
    32    11     7   ar
    33    21    17    1
    34    24    25    1
    35    12    13    1
@<TRIPOS>MOLECULE
*****
 32 35 0 0 0
SMALL
GASTEIGER

@<TRIPOS>ATOM
      1 C         140.3742  138.5398  161.7781 C.ar    1  UNL1        0.0505
      2 C         139.5764  139.7415  162.1896 C.ar    1  UNL1        0.0148
      3 C         139.0909  139.8713  163.6029 C.ar    1  UNL1        0.0060
      4 C         139.4033  138.7995  164.6047 C.ar    1  UNL1        0.0553
      5 C         140.2011  137.5978  164.1932 C.ar    1  UNL1        0.0060
      6 C         140.6866  137.4679  162.7799 C.ar    1  UNL1        0.0148
      7 C         138.9178  138.9294  166.0180 C.ar    1  UNL1        0.2512
      8 N         137.7093  138.2582  166.6003 N.ar    1  UNL1       -0.1058
      9 N         137.6001  138.6673  168.0393 N.ar    1  UNL1       -0.0923
     10 C         138.7413  139.5913  168.3464 C.ar    1  UNL1        0.3086
     11 O         139.5556  139.7533  167.0971 O.2     1  UNL1       -0.4048
     12 N         139.0192  140.2395  169.6703 N.pl3   1  UNL1       -0.2871
     13 H         138.3795  140.8871  170.0452 H       1  UNL1        0.1512
     14 C         140.2717  139.9009  170.4229 C.3     1  UNL1        0.0925
     15 C         141.5949  140.4287  169.9531 C.3     1  UNL1        0.0386
     16 C         142.5069  139.5544  169.1446 C.3     1  UNL1        0.0738
     17 N         142.7237  139.8404  167.6883 N.3     1  UNL1       -0.2726
     18 C         142.6960  141.1936  167.0419 C.3     1  UNL1        0.0721
     19 C         142.9614  141.0130  165.5766 C.3     1  UNL1        0.0188
     20 C         143.1532  139.5480  165.3174 C.3     1  UNL1        0.0188
     21 C         143.0063  138.8234  166.6226 C.3     1  UNL1        0.0721
     22 O         143.1708  139.3637  161.0709 O.2     1  UNL1       -0.2697
     23 C         142.2580  138.8218  160.0112 C.2     1  UNL1        0.2517
     24 N         140.8597  138.4098  160.3647 N.am    1  UNL1       -0.2803
     25 H         140.2605  138.0542  159.6692 H       1  UNL1        0.1552
     26 C         142.7434  138.6919  158.5978 C.ar    1  UNL1        0.0811
     27 C         142.6559  137.3706  157.8932 C.ar    1  UNL1        0.0068
     28 C         143.1414  137.2407  156.4799 C.ar    1  UNL1        0.0003
     29 C         143.7144  138.4322  155.7713 C.ar    1  UNL1        0.0023
     30 C         143.8019  139.7534  156.4759 C.ar    1  UNL1        0.0298
     31 C         143.3164  139.8833  157.8891 C.ar    1  UNL1        0.1445
     32 F         143.4039  141.2046  158.5938 F       1  UNL1       -0.2040
@<TRIPOS>BOND
     1    22    23    2
     2    23    24   am
     3    24     1    1
     4     1     2   ar
     5     2     3   ar
     6     3     4   ar
     7     4     7    1
     8     7     8   ar
     9     8     9   ar
    10     9    10   ar
    11    10    12    1
    12    12    14    1
    13    14    15    1
    14    15    16    1
    15    16    17    1
    16    17    18    1
    17    18    19    1
    18    19    20    1
    19    20    21    1
    20    10    11   ar
    21     4     5   ar
    22     5     6   ar
    23    23    26    1
    24    26    27   ar
    25    27    28   ar
    26    28    29   ar
    27    29    30   ar
    28    30    31   ar
    29    31    32    1
    30     6     1   ar
    31    31    26   ar
    32    11     7   ar
    33    21    17    1
    34    24    25    1
    35    12    13    1
@<TRIPOS>MOLECULE
*****
 32 35 0 0 0
SMALL
GASTEIGER

@<TRIPOS>ATOM
      1 C         142.4917  137.7775  157.8311 C.ar    1  UNL1        0.0505
      2 C         142.8668  137.8022  159.2832 C.ar    1  UNL1        0.0148
      3 C         143.0215  139.1132  159.9956 C.ar    1  UNL1        0.0060
      4 C         142.8013  140.3993  159.2558 C.ar    1  UNL1        0.0553
      5 C         142.4263  140.3746  157.8037 C.ar    1  UNL1        0.0060
      6 C         142.2715  139.0637  157.0913 C.ar    1  UNL1        0.0148
      7 C         142.9562  141.7103  159.9682 C.ar    1  UNL1        0.2512
      8 N         144.1140  142.1125  160.8328 N.ar    1  UNL1       -0.1058
      9 N         143.8538  143.4999  161.3401 N.ar    1  UNL1       -0.0923
     10 C         142.5351  143.9552  160.7889 C.ar    1  UNL1        0.3086
     11 O         141.9803  142.8491  159.9411 O.2     1  UNL1       -0.4048
     12 N         141.8852  145.2834  161.0413 N.pl3   1  UNL1       -0.2871
     13 H         142.4325  146.0556  161.3124 H       1  UNL1        0.1512
     14 C         140.4016  145.4350  160.8806 C.3     1  UNL1        0.0925
     15 C         139.5714  145.9413  162.0228 C.3     1  UNL1        0.0386
     16 C         139.3137  145.0619  163.2103 C.3     1  UNL1        0.0738
     17 N         140.2228  143.9039  163.4973 N.3     1  UNL1       -0.2726
     18 C         141.4418  143.9354  164.3707 C.3     1  UNL1        0.0721
     19 C         142.0450  142.5619  164.3746 C.3     1  UNL1        0.0188
     20 C         141.1987  141.6816  163.5034 C.3     1  UNL1        0.0188
     21 C         140.0725  142.5111  162.9613 C.3     1  UNL1        0.0721
     22 O         144.4979  136.9497  155.7598 O.2     1  UNL1       -0.2697
     23 C         143.3400  136.0527  156.0831 C.2     1  UNL1        0.2517
     24 N         142.3369  136.4665  157.1187 N.am    1  UNL1       -0.2803
     25 H         141.5770  135.8777  157.3308 H       1  UNL1        0.1552
     26 C         143.1852  134.7417  155.3707 C.ar    1  UNL1        0.0811
     27 C         142.4344  134.6770  154.0737 C.ar    1  UNL1        0.0068
     28 C         142.2796  133.3661  153.3614 C.ar    1  UNL1        0.0003
     29 C         142.8756  132.1199  153.9460 C.ar    1  UNL1        0.0023
     30 C         143.6265  132.1846  155.2429 C.ar    1  UNL1        0.0298
     31 C         143.7812  133.4955  155.9552 C.ar    1  UNL1        0.1445
     32 F         144.5321  133.5603  157.2522 F       1  UNL1       -0.2040
@<TRIPOS>BOND
     1    22    23    2
     2    23    24   am
     3    24     1    1
     4     1     2   ar
     5     2     3   ar
     6     3     4   ar
     7     4     7    1
     8     7     8   ar
     9     8     9   ar
    10     9    10   ar
    11    10    12    1
    12    12    14    1
    13    14    15    1
    14    15    16    1
    15    16    17    1
    16    17    18    1
    17    18    19    1
    18    19    20    1
    19    20    21    1
    20    10    11   ar
    21     4     5   ar
    22     5     6   ar
    23    23    26    1
    24    26    27   ar
    25    27    28   ar
    26    28    29   ar
    27    29    30   ar
    28    30    31   ar
    29    31    32    1
    30     6     1   ar
    31    31    26   ar
    32    11     7   ar
    33    21    17    1
    34    24    25    1
    35    12    13    1
