@<TRIPOS>MOLECULE
*****
 36 40 0 0 0
SMALL
GASTEIGER

@<TRIPOS>ATOM
      1 C         139.5649  140.9388  169.1377 C.3     1  UNL1        0.0790
      2 C         138.5785  140.1857  169.9802 C.3     1  UNL1        0.0386
      3 C         137.8398  139.2323  169.0884 C.3     1  UNL1        0.1157
      4 C         138.3696  139.3962  167.6948 C.3     1  UNL1        0.0255
      5 C         137.2873  138.3651  167.8186 C.3     1  UNL1        0.0024
      6 C         138.0190  138.7214  166.4018 C.3     1  UNL1        0.0027
      7 C         138.7345  139.1012  165.1394 C.3     1  UNL1        0.0044
      8 C         139.8007  140.1559  165.1699 C.3     1  UNL1        0.0220
      9 C         140.5163  140.5357  163.9074 C.ar    1  UNL1       -0.0263
     10 C         140.1656  139.8608  162.6145 C.ar    1  UNL1       -0.0015
     11 C         140.8812  140.2406  161.3521 C.ar    1  UNL1        0.0366
     12 C         141.9473  141.2953  161.3826 C.ar    1  UNL1        0.1382
     13 C         142.2980  141.9702  162.6755 C.ar    1  UNL1        0.0323
     14 C         141.5824  141.5904  163.9379 C.ar    1  UNL1       -0.0231
     15 C         141.9331  142.2652  165.2308 C.3     1  UNL1        0.0261
     16 C         141.2175  141.8854  166.4932 C.3     1  UNL1        0.0050
     17 C         140.1514  140.8307  166.4627 C.3     1  UNL1        0.0049
     18 C         139.4358  140.4509  167.7252 C.3     1  UNL1        0.0113
     19 N         141.9204  141.6266  169.9916 N.am    1  UNL1       -0.3043
     20 C         140.5138  141.9945  169.6227 C.2     1  UNL1        0.2221
     21 O         140.0560  143.4183  169.7386 O.2     1  UNL1       -0.2751
     22 H         142.2208  140.6922  169.9155 H       1  UNL1        0.1494
     23 C         144.2794  142.7147  169.9666 C.3     1  UNL1        0.0230
     24 C         142.8692  142.6824  170.4765 C.3     1  UNL1        0.0894
     25 O         136.7607  138.2819  169.5154 O.3     1  UNL1       -0.3536
     26 C         136.1985  138.3603  170.9038 C.3     1  UNL1        0.1740
     27 O         142.6629  141.6751  160.1201 O.3     1  UNL1       -0.4754
     28 C         142.1467  142.8021  159.2754 C.3     1  UNL1        0.2068
     29 C         141.7953  144.1151  159.9100 C.3     1  UNL1        0.0646
     30 C         140.3663  144.4302  160.2396 C.3     1  UNL1        0.0759
     31 N         139.9014  144.4010  161.6654 N.3     1  UNL1       -0.2738
     32 C         140.4403  145.2402  162.7858 C.3     1  UNL1        0.0721
     33 C         139.6880  144.8853  164.0341 C.3     1  UNL1        0.0187
     34 C         138.6842  143.8267  163.6850 C.3     1  UNL1        0.0174
     35 C         138.8161  143.5274  162.2212 C.3     1  UNL1        0.0576
     36 C         138.0051  142.5296  161.4487 C.3     1  UNL1        0.0173
@<TRIPOS>BOND
     1    23    24    1
     2    24    19    1
     3    19    20   am
     4    20    21    2
     5     1    20    1
     6     1     2    1
     7     2     3    1
     8     3    25    1
     9    25    26    1
    10     3     4    1
    11     4     5    1
    12     4     6    1
    13     6     7    1
    14     8     7    1
    15     8     9    1
    16     9    10   ar
    17    10    11   ar
    18    11    12   ar
    19    12    27    1
    20    27    28    1
    21    28    29    1
    22    29    30    1
    23    30    31    1
    24    31    32    1
    25    32    33    1
    26    33    34    1
    27    34    35    1
    28    35    36    1
    29    12    13   ar
    30    13    14   ar
    31    14    15    1
    32    15    16    1
    33    17    16    1
    34    17    18    1
    35    18     1    1
    36    18     4    1
    37    17     8    1
    38    14     9   ar
    39    35    31    1
    40    19    22    1
@<TRIPOS>MOLECULE
*****
 36 40 0 0 0
SMALL
GASTEIGER

@<TRIPOS>ATOM
      1 C         139.4967  140.9367  169.2745 C.3     1  UNL1        0.0790
      2 C         138.5882  140.1274  170.1519 C.3     1  UNL1        0.0386
      3 C         137.8060  139.1955  169.2747 C.3     1  UNL1        0.1157
      4 C         138.2310  139.4287  167.8553 C.3     1  UNL1        0.0255
      5 C         137.1806  138.3693  168.0113 C.3     1  UNL1        0.0024
      6 C         137.8015  138.8002  166.5627 C.3     1  UNL1        0.0027
      7 C         138.4169  139.2479  165.2702 C.3     1  UNL1        0.0044
      8 C         139.4619  140.3241  165.2701 C.3     1  UNL1        0.0220
      9 C         140.0773  140.7718  163.9774 C.ar    1  UNL1       -0.0263
     10 C         139.6478  140.1433  162.6849 C.ar    1  UNL1       -0.0015
     11 C         140.2633  140.5910  161.3924 C.ar    1  UNL1        0.0366
     12 C         141.3082  141.6671  161.3923 C.ar    1  UNL1        0.1382
     13 C         141.7376  142.2956  162.6847 C.ar    1  UNL1        0.0323
     14 C         141.1222  141.8480  163.9773 C.ar    1  UNL1       -0.0231
     15 C         141.5517  142.4765  165.2699 C.3     1  UNL1        0.0261
     16 C         140.9362  142.0288  166.5624 C.3     1  UNL1        0.0050
     17 C         139.8913  140.9526  166.5625 C.3     1  UNL1        0.0049
     18 C         139.2759  140.5049  167.8552 C.3     1  UNL1        0.0113
     19 N         141.8872  141.6354  170.0146 N.am    1  UNL1       -0.3043
     20 C         140.4573  141.9925  169.7357 C.2     1  UNL1        0.2221
     21 O         139.9879  143.4054  169.9180 O.2     1  UNL1       -0.2751
     22 H         142.1952  140.7080  169.8950 H       1  UNL1        0.1494
     23 C         144.2458  142.7217  169.9333 C.3     1  UNL1        0.0230
     24 C         142.8477  142.6912  170.4758 C.3     1  UNL1        0.0894
     25 O         136.7790  138.2042  169.7361 O.3     1  UNL1       -0.3536
     26 C         136.1733  138.3326  171.1023 C.3     1  UNL1        0.1740
     27 O         141.9236  142.1148  160.0996 O.3     1  UNL1       -0.4754
     28 C         143.0779  141.3554  159.5159 C.3     1  UNL1        0.2068
     29 C         143.1571  139.8667  159.6818 C.3     1  UNL1        0.0646
     30 C         144.1914  139.2669  160.5876 C.3     1  UNL1        0.0759
     31 N         144.0442  139.3847  162.0756 N.3     1  UNL1       -0.2738
     32 C         144.8279  140.2994  162.9695 C.3     1  UNL1        0.0721
     33 C         144.3555  140.0885  164.3775 C.3     1  UNL1        0.0187
     34 C         143.2798  139.0433  164.3537 C.3     1  UNL1        0.0174
     35 C         143.0874  138.6084  162.9311 C.3     1  UNL1        0.0576
     36 C         142.1099  137.5780  162.4487 C.3     1  UNL1        0.0173
@<TRIPOS>BOND
     1    23    24    1
     2    24    19    1
     3    19    20   am
     4    20    21    2
     5     1    20    1
     6     1     2    1
     7     2     3    1
     8     3    25    1
     9    25    26    1
    10     3     4    1
    11     4     5    1
    12     4     6    1
    13     6     7    1
    14     8     7    1
    15     8     9    1
    16     9    10   ar
    17    10    11   ar
    18    11    12   ar
    19    12    27    1
    20    27    28    1
    21    28    29    1
    22    29    30    1
    23    30    31    1
    24    31    32    1
    25    32    33    1
    26    33    34    1
    27    34    35    1
    28    35    36    1
    29    12    13   ar
    30    13    14   ar
    31    14    15    1
    32    15    16    1
    33    17    16    1
    34    17    18    1
    35    18     1    1
    36    18     4    1
    37    17     8    1
    38    14     9   ar
    39    35    31    1
    40    19    22    1
@<TRIPOS>MOLECULE
*****
 36 40 0 0 0
SMALL
GASTEIGER

@<TRIPOS>ATOM
      1 C         139.5656  140.7367  168.9986 C.3     1  UNL1        0.0790
      2 C         138.5181  140.1718  169.9116 C.3     1  UNL1        0.0386
      3 C         137.7258  139.1600  169.1380 C.3     1  UNL1        0.1157
      4 C         138.2835  139.0997  167.7469 C.3     1  UNL1        0.0255
      5 C         137.1300  138.1703  167.9825 C.3     1  UNL1        0.0024
      6 C         137.9029  138.2833  166.5474 C.3     1  UNL1        0.0027
      7 C         138.6594  138.4414  165.2619 C.3     1  UNL1        0.0044
      8 C         139.7965  139.4159  165.1757 C.3     1  UNL1        0.0220
      9 C         140.5530  139.5739  163.8901 C.ar    1  UNL1       -0.0263
     10 C         140.1724  138.7576  162.6907 C.ar    1  UNL1       -0.0015
     11 C         140.9289  138.9156  161.4051 C.ar    1  UNL1        0.0366
     12 C         142.0660  139.8901  161.3190 C.ar    1  UNL1        0.1382
     13 C         142.4466  140.7065  162.5184 C.ar    1  UNL1        0.0323
     14 C         141.6901  140.5484  163.8039 C.ar    1  UNL1       -0.0231
     15 C         142.0707  141.3648  165.0034 C.3     1  UNL1        0.0261
     16 C         141.3142  141.2067  166.2890 C.3     1  UNL1        0.0050
     17 C         140.1771  140.2323  166.3751 C.3     1  UNL1        0.0049
     18 C         139.4206  140.0742  167.6608 C.3     1  UNL1        0.0113
     19 N         141.7974  141.4024  170.1504 N.am    1  UNL1       -0.3043
     20 C         140.5800  141.7810  169.3601 C.2     1  UNL1        0.2221
     21 O         140.3769  143.2040  168.9312 O.2     1  UNL1       -0.2751
     22 H         141.9306  140.4684  170.4319 H       1  UNL1        0.1494
     23 C         144.1111  142.5197  169.7662 C.3     1  UNL1        0.0230
     24 C         142.8117  142.4467  170.5118 C.3     1  UNL1        0.0894
     25 O         136.5773  138.3507  169.6633 O.3     1  UNL1       -0.3536
     26 C         136.1595  138.4844  171.0978 C.3     1  UNL1        0.1740
     27 O         142.8225  140.0482  160.0333 O.3     1  UNL1       -0.4754
     28 C         142.7758  141.3507  159.2909 C.3     1  UNL1        0.2068
     29 C         141.7987  142.4127  159.7002 C.3     1  UNL1        0.0646
     30 C         142.2824  143.7992  160.0063 C.3     1  UNL1        0.0759
     31 N         142.2190  144.3226  161.4106 N.3     1  UNL1       -0.2738
     32 C         141.0621  145.0501  162.0289 C.3     1  UNL1        0.0721
     33 C         141.4294  145.3876  163.4435 C.3     1  UNL1        0.0187
     34 C         142.8134  144.8687  163.6994 C.3     1  UNL1        0.0174
     35 C         143.3013  144.2106  162.4430 C.3     1  UNL1        0.0576
     36 C         144.6371  143.5553  162.2525 C.3     1  UNL1        0.0173
@<TRIPOS>BOND
     1    23    24    1
     2    24    19    1
     3    19    20   am
     4    20    21    2
     5     1    20    1
     6     1     2    1
     7     2     3    1
     8     3    25    1
     9    25    26    1
    10     3     4    1
    11     4     5    1
    12     4     6    1
    13     6     7    1
    14     8     7    1
    15     8     9    1
    16     9    10   ar
    17    10    11   ar
    18    11    12   ar
    19    12    27    1
    20    27    28    1
    21    28    29    1
    22    29    30    1
    23    30    31    1
    24    31    32    1
    25    32    33    1
    26    33    34    1
    27    34    35    1
    28    35    36    1
    29    12    13   ar
    30    13    14   ar
    31    14    15    1
    32    15    16    1
    33    17    16    1
    34    17    18    1
    35    18     1    1
    36    18     4    1
    37    17     8    1
    38    14     9   ar
    39    35    31    1
    40    19    22    1
@<TRIPOS>MOLECULE
*****
 36 40 0 0 0
SMALL
GASTEIGER

@<TRIPOS>ATOM
      1 C         139.9363  140.7675  167.5753 C.3     1  UNL1        0.0790
      2 C         139.0105  139.8021  168.2541 C.3     1  UNL1        0.0386
      3 C         138.4755  138.8635  167.2135 C.3     1  UNL1        0.1157
      4 C         139.0706  139.2488  165.8918 C.3     1  UNL1        0.0255
      5 C         138.1379  138.0761  165.8222 C.3     1  UNL1        0.0024
      6 C         138.9071  138.6802  164.5133 C.3     1  UNL1        0.0027
      7 C         139.6464  139.2884  163.3586 C.3     1  UNL1        0.0044
      8 C         140.5493  140.4652  163.5822 C.3     1  UNL1        0.0220
      9 C         141.2886  141.0733  162.4274 C.ar    1  UNL1       -0.0263
     10 C         141.1251  140.5047  161.0490 C.ar    1  UNL1       -0.0015
     11 C         141.8644  141.1129  159.8943 C.ar    1  UNL1        0.0366
     12 C         142.7673  142.2897  160.1179 C.ar    1  UNL1        0.1382
     13 C         142.9308  142.8583  161.4962 C.ar    1  UNL1        0.0323
     14 C         142.1915  142.2501  162.6510 C.ar    1  UNL1       -0.0231
     15 C         142.3550  142.8187  164.0294 C.3     1  UNL1        0.0261
     16 C         141.6157  142.2106  165.1841 C.3     1  UNL1        0.0050
     17 C         140.7128  141.0338  164.9605 C.3     1  UNL1        0.0049
     18 C         139.9735  140.4256  166.1154 C.3     1  UNL1        0.0113
     19 N         141.8948  141.5709  169.0818 N.am    1  UNL1       -0.3043
     20 C         140.6922  141.8797  168.2400 C.2     1  UNL1        0.2221
     21 O         140.2456  143.3006  168.0629 O.2     1  UNL1       -0.2751
     22 H         142.1879  140.6383  169.1980 H       1  UNL1        0.1494
     23 C         144.1436  142.6064  169.8693 C.3     1  UNL1        0.0230
     24 C         142.6506  142.6831  169.7464 C.3     1  UNL1        0.0894
     25 O         137.5140  137.7372  167.4529 O.3     1  UNL1       -0.3536
     26 C         136.4499  137.8695  168.5018 C.3     1  UNL1        0.1740
     27 O         143.5066  142.8978  158.9630 O.3     1  UNL1       -0.4754
     28 C         142.8818  144.0105  158.1748 C.3     1  UNL1        0.2068
     29 C         141.3883  144.1247  158.0925 C.3     1  UNL1        0.0646
     30 C         140.6406  144.9327  159.1114 C.3     1  UNL1        0.0759
     31 N         139.7823  144.2448  160.1311 N.3     1  UNL1       -0.2738
     32 C         138.8781  143.0750  159.8778 C.3     1  UNL1        0.0721
     33 C         138.2144  142.7131  161.1734 C.3     1  UNL1        0.0187
     34 C         138.7083  143.6593  162.2274 C.3     1  UNL1        0.0174
     35 C         139.6773  144.6059  161.5832 C.3     1  UNL1        0.0576
     36 C         140.4123  145.7182  162.2705 C.3     1  UNL1        0.0173
@<TRIPOS>BOND
     1    23    24    1
     2    24    19    1
     3    19    20   am
     4    20    21    2
     5     1    20    1
     6     1     2    1
     7     2     3    1
     8     3    25    1
     9    25    26    1
    10     3     4    1
    11     4     5    1
    12     4     6    1
    13     6     7    1
    14     8     7    1
    15     8     9    1
    16     9    10   ar
    17    10    11   ar
    18    11    12   ar
    19    12    27    1
    20    27    28    1
    21    28    29    1
    22    29    30    1
    23    30    31    1
    24    31    32    1
    25    32    33    1
    26    33    34    1
    27    34    35    1
    28    35    36    1
    29    12    13   ar
    30    13    14   ar
    31    14    15    1
    32    15    16    1
    33    17    16    1
    34    17    18    1
    35    18     1    1
    36    18     4    1
    37    17     8    1
    38    14     9   ar
    39    35    31    1
    40    19    22    1
@<TRIPOS>MOLECULE
*****
 36 40 0 0 0
SMALL
GASTEIGER

@<TRIPOS>ATOM
      1 C         140.4291  141.9412  159.6446 C.3     1  UNL1        0.0790
      2 C         140.4204  141.3576  158.2628 C.3     1  UNL1        0.0386
      3 C         140.0225  139.9154  158.3713 C.3     1  UNL1        0.1157
      4 C         139.7852  139.6077  159.8200 C.3     1  UNL1        0.0255
      5 C         139.5698  138.4389  158.9049 C.3     1  UNL1        0.0024
      6 C         139.3727  138.3492  160.5243 C.3     1  UNL1        0.0027
      7 C         139.2115  138.3427  162.0156 C.3     1  UNL1        0.0044
      8 C         139.4628  139.5947  162.8026 C.3     1  UNL1        0.0220
      9 C         139.3017  139.5882  164.2939 C.ar    1  UNL1       -0.0263
     10 C         138.8892  138.3298  164.9982 C.ar    1  UNL1       -0.0015
     11 C         138.7281  138.3233  166.4895 C.ar    1  UNL1        0.0366
     12 C         138.9794  139.5753  167.2765 C.ar    1  UNL1        0.1382
     13 C         139.3918  140.8338  166.5722 C.ar    1  UNL1        0.0323
     14 C         139.5530  140.8402  165.0809 C.ar    1  UNL1       -0.0231
     15 C         139.9654  142.0988  164.3765 C.3     1  UNL1        0.0261
     16 C         140.1266  142.1052  162.8853 C.3     1  UNL1        0.0050
     17 C         139.8753  140.8532  162.0983 C.3     1  UNL1        0.0049
     18 C         140.0365  140.8597  160.6069 C.3     1  UNL1        0.0113
     19 N         139.6811  144.3793  160.1408 N.am    1  UNL1       -0.3043
     20 C         140.7704  143.3576  160.0013 C.2     1  UNL1        0.2221
     21 O         142.2012  143.7523  160.2184 O.2     1  UNL1       -0.2751
     22 H         138.7420  144.1203  159.9983 H       1  UNL1        0.1494
     23 C         139.9609  146.2447  161.9274 C.3     1  UNL1        0.0230
     24 C         140.0225  145.7957  160.4975 C.3     1  UNL1        0.0894
     25 O         139.8858  138.9504  157.2310 O.3     1  UNL1       -0.3536
     26 C         139.3753  139.4258  155.9031 C.3     1  UNL1        0.1740
     27 O         138.8182  139.5688  168.7678 O.3     1  UNL1       -0.4754
     28 C         139.8042  140.2975  169.6320 C.3     1  UNL1        0.2068
     29 C         140.8790  139.5359  170.3497 C.3     1  UNL1        0.0646
     30 C         142.2849  139.5503  169.8270 C.3     1  UNL1        0.0759
     31 N         142.5565  139.9842  168.4171 N.3     1  UNL1       -0.2738
     32 C         142.6736  139.0825  167.2241 C.3     1  UNL1        0.0721
     33 C         142.9481  139.9370  166.0223 C.3     1  UNL1        0.0187
     34 C         143.0007  141.3670  166.4726 C.3     1  UNL1        0.0174
     35 C         142.7586  141.3961  167.9526 C.3     1  UNL1        0.0576
     36 C         142.7247  142.6218  168.8165 C.3     1  UNL1        0.0173
@<TRIPOS>BOND
     1    23    24    1
     2    24    19    1
     3    19    20   am
     4    20    21    2
     5     1    20    1
     6     1     2    1
     7     2     3    1
     8     3    25    1
     9    25    26    1
    10     3     4    1
    11     4     5    1
    12     4     6    1
    13     6     7    1
    14     8     7    1
    15     8     9    1
    16     9    10   ar
    17    10    11   ar
    18    11    12   ar
    19    12    27    1
    20    27    28    1
    21    28    29    1
    22    29    30    1
    23    30    31    1
    24    31    32    1
    25    32    33    1
    26    33    34    1
    27    34    35    1
    28    35    36    1
    29    12    13   ar
    30    13    14   ar
    31    14    15    1
    32    15    16    1
    33    17    16    1
    34    17    18    1
    35    18     1    1
    36    18     4    1
    37    17     8    1
    38    14     9   ar
    39    35    31    1
    40    19    22    1
@<TRIPOS>MOLECULE
*****
 36 40 0 0 0
SMALL
GASTEIGER

@<TRIPOS>ATOM
      1 C         142.2833  141.2940  159.1118 C.3     1  UNL1        0.0790
      2 C         142.2945  140.4960  157.8418 C.3     1  UNL1        0.0386
      3 C         142.5030  139.0548  158.2018 C.3     1  UNL1        0.1157
      4 C         142.6205  138.9621  159.6942 C.3     1  UNL1        0.0255
      5 C         142.7380  137.6430  158.9900 C.3     1  UNL1        0.0024
      6 C         142.8336  137.7964  160.6138 C.3     1  UNL1        0.0027
      7 C         142.9110  138.0146  162.0958 C.3     1  UNL1        0.0044
      8 C         142.7752  139.3985  162.6583 C.3     1  UNL1        0.0220
      9 C         142.8526  139.6166  164.1404 C.ar    1  UNL1       -0.0263
     10 C         143.0657  138.4509  165.0599 C.ar    1  UNL1       -0.0015
     11 C         143.1431  138.6691  166.5419 C.ar    1  UNL1        0.0366
     12 C         143.0073  140.0530  167.1044 C.ar    1  UNL1        0.1382
     13 C         142.7941  141.2187  166.1848 C.ar    1  UNL1        0.0323
     14 C         142.7168  141.0005  164.7028 C.ar    1  UNL1       -0.0231
     15 C         142.5037  142.1663  163.7832 C.3     1  UNL1        0.0261
     16 C         142.4263  141.9481  162.3012 C.3     1  UNL1        0.0050
     17 C         142.5621  140.5642  161.7387 C.3     1  UNL1        0.0049
     18 C         142.4847  140.3461  160.2567 C.3     1  UNL1        0.0113
     19 N         140.7231  143.3625  159.3051 N.am    1  UNL1       -0.3043
     20 C         142.1023  142.7792  159.2182 C.2     1  UNL1        0.2221
     21 O         143.3006  143.6812  159.2377 O.2     1  UNL1       -0.2751
     22 H         139.9366  142.7705  159.2923 H       1  UNL1        0.1494
     23 C         140.3995  145.4912  160.7589 C.3     1  UNL1        0.0230
     24 C         140.5422  144.8478  159.4115 C.3     1  UNL1        0.0894
     25 O         142.5803  137.9077  157.2383 O.3     1  UNL1       -0.3536
     26 C         142.4100  138.1504  155.7679 C.3     1  UNL1        0.1740
     27 O         143.0846  140.2711  168.5865 O.3     1  UNL1       -0.4754
     28 C         141.8342  140.5340  169.3721 C.3     1  UNL1        0.2068
     29 C         140.5268  139.9571  168.9162 C.3     1  UNL1        0.0646
     30 C         139.6246  140.7568  168.0237 C.3     1  UNL1        0.0759
     31 N         139.4117  140.3346  166.6002 N.3     1  UNL1       -0.2738
     32 C         139.3340  138.9219  166.1018 C.3     1  UNL1        0.0721
     33 C         139.1134  138.9651  164.6187 C.3     1  UNL1        0.0187
     34 C         139.0547  140.4045  164.2006 C.3     1  UNL1        0.0174
     35 C         139.2391  141.2508  165.4252 C.3     1  UNL1        0.0576
     36 C         139.2492  142.7502  165.4674 C.3     1  UNL1        0.0173
@<TRIPOS>BOND
     1    23    24    1
     2    24    19    1
     3    19    20   am
     4    20    21    2
     5     1    20    1
     6     1     2    1
     7     2     3    1
     8     3    25    1
     9    25    26    1
    10     3     4    1
    11     4     5    1
    12     4     6    1
    13     6     7    1
    14     8     7    1
    15     8     9    1
    16     9    10   ar
    17    10    11   ar
    18    11    12   ar
    19    12    27    1
    20    27    28    1
    21    28    29    1
    22    29    30    1
    23    30    31    1
    24    31    32    1
    25    32    33    1
    26    33    34    1
    27    34    35    1
    28    35    36    1
    29    12    13   ar
    30    13    14   ar
    31    14    15    1
    32    15    16    1
    33    17    16    1
    34    17    18    1
    35    18     1    1
    36    18     4    1
    37    17     8    1
    38    14     9   ar
    39    35    31    1
    40    19    22    1
@<TRIPOS>MOLECULE
*****
 36 40 0 0 0
SMALL
GASTEIGER

@<TRIPOS>ATOM
      1 C         139.5056  141.9900  159.1230 C.3     1  UNL1        0.0790
      2 C         139.7298  143.1088  158.1494 C.3     1  UNL1        0.0386
      3 C         140.0825  144.3396  158.9309 C.3     1  UNL1        0.1157
      4 C         140.0763  143.9815  160.3874 C.3     1  UNL1        0.0255
      5 C         140.4194  145.4157  160.1133 C.3     1  UNL1        0.0024
      6 C         140.3493  144.7900  161.6210 C.3     1  UNL1        0.0027
      7 C         140.2658  144.1464  162.9733 C.3     1  UNL1        0.0044
      8 C         139.9093  142.6943  163.0920 C.3     1  UNL1        0.0220
      9 C         139.8257  142.0507  164.4444 C.ar    1  UNL1       -0.0263
     10 C         140.0987  142.8592  165.6780 C.ar    1  UNL1       -0.0015
     11 C         140.0152  142.2156  167.0303 C.ar    1  UNL1        0.0366
     12 C         139.6587  140.7634  167.1490 C.ar    1  UNL1        0.1382
     13 C         139.3857  139.9549  165.9155 C.ar    1  UNL1        0.0323
     14 C         139.4692  140.5985  164.5632 C.ar    1  UNL1       -0.0231
     15 C         139.1963  139.7899  163.3296 C.3     1  UNL1        0.0261
     16 C         139.2798  140.4335  161.9773 C.3     1  UNL1        0.0050
     17 C         139.6363  141.8857  161.8585 C.3     1  UNL1        0.0049
     18 C         139.7198  142.5293  160.5061 C.3     1  UNL1        0.0113
     19 N         140.2045  139.5591  158.5290 N.am    1  UNL1       -0.3043
     20 C         139.1328  140.5794  158.7745 C.2     1  UNL1        0.2221
     21 O         137.6881  140.1893  158.6716 O.2     1  UNL1       -0.2751
     22 H         141.1527  139.8152  158.5965 H       1  UNL1        0.1494
     23 C         139.8283  137.7061  156.7473 C.3     1  UNL1        0.0230
     24 C         139.8316  138.1486  158.1805 C.3     1  UNL1        0.0894
     25 O         140.3877  145.6913  158.3565 O.3     1  UNL1       -0.3536
     26 C         140.1977  145.9435  156.8901 C.3     1  UNL1        0.1740
     27 O         139.5752  140.1198  168.5014 O.3     1  UNL1       -0.4754
     28 C         140.7928  140.0482  169.3744 C.3     1  UNL1        0.2068
     29 C         142.0379  139.3795  168.8716 C.3     1  UNL1        0.0646
     30 C         142.9867  140.1304  167.9852 C.3     1  UNL1        0.0759
     31 N         142.9916  139.8770  166.5068 N.3     1  UNL1       -0.2738
     32 C         142.7210  138.5626  165.8366 C.3     1  UNL1        0.0721
     33 C         142.8300  138.7668  164.3545 C.3     1  UNL1        0.0187
     34 C         143.1679  140.2075  164.1088 C.3     1  UNL1        0.0174
     35 C         143.2678  140.8936  165.4389 C.3     1  UNL1        0.0576
     36 C         143.5877  142.3420  165.6620 C.3     1  UNL1        0.0173
@<TRIPOS>BOND
     1    23    24    1
     2    24    19    1
     3    19    20   am
     4    20    21    2
     5     1    20    1
     6     1     2    1
     7     2     3    1
     8     3    25    1
     9    25    26    1
    10     3     4    1
    11     4     5    1
    12     4     6    1
    13     6     7    1
    14     8     7    1
    15     8     9    1
    16     9    10   ar
    17    10    11   ar
    18    11    12   ar
    19    12    27    1
    20    27    28    1
    21    28    29    1
    22    29    30    1
    23    30    31    1
    24    31    32    1
    25    32    33    1
    26    33    34    1
    27    34    35    1
    28    35    36    1
    29    12    13   ar
    30    13    14   ar
    31    14    15    1
    32    15    16    1
    33    17    16    1
    34    17    18    1
    35    18     1    1
    36    18     4    1
    37    17     8    1
    38    14     9   ar
    39    35    31    1
    40    19    22    1
@<TRIPOS>MOLECULE
*****
 36 40 0 0 0
SMALL
GASTEIGER

@<TRIPOS>ATOM
      1 C         142.1891  141.5461  158.6072 C.3     1  UNL1        0.0790
      2 C         142.7994  140.8456  157.4296 C.3     1  UNL1        0.0386
      3 C         142.9096  139.3874  157.7639 C.3     1  UNL1        0.1157
      4 C         142.3674  139.1869  159.1479 C.3     1  UNL1        0.0255
      5 C         142.8547  137.9273  158.4952 C.3     1  UNL1        0.0024
      6 C         142.2216  137.9617  160.0010 C.3     1  UNL1        0.0027
      7 C         141.6305  138.0708  161.3753 C.3     1  UNL1        0.0044
      8 C         141.1853  139.4049  161.8966 C.3     1  UNL1        0.0220
      9 C         140.5942  139.5139  163.2709 C.ar    1  UNL1       -0.0263
     10 C         140.4484  138.2888  164.1240 C.ar    1  UNL1       -0.0015
     11 C         139.8573  138.3979  165.4983 C.ar    1  UNL1        0.0366
     12 C         139.4121  139.7320  166.0195 C.ar    1  UNL1        0.1382
     13 C         139.5579  140.9572  165.1665 C.ar    1  UNL1        0.0323
     14 C         140.1489  140.8481  163.7922 C.ar    1  UNL1       -0.0231
     15 C         140.2947  142.0733  162.9390 C.3     1  UNL1        0.0261
     16 C         140.8858  141.9643  161.5648 C.3     1  UNL1        0.0050
     17 C         141.3310  140.6301  161.0435 C.3     1  UNL1        0.0049
     18 C         141.9221  140.5211  159.6691 C.3     1  UNL1        0.0113
     19 N         140.5984  143.5570  158.1872 N.am    1  UNL1       -0.3043
     20 C         141.8971  143.0142  158.7055 C.2     1  UNL1        0.2221
     21 O         142.9039  143.9395  159.3221 O.2     1  UNL1       -0.2751
     22 H         139.9375  142.9497  157.7825 H       1  UNL1        0.1494
     23 C         140.9219  145.9793  157.3055 C.3     1  UNL1        0.0230
     24 C         140.3065  145.0250  158.2855 C.3     1  UNL1        0.0894
     25 O         143.4645  138.3177  156.8707 O.3     1  UNL1       -0.3536
     26 C         143.9522  138.6669  155.4958 C.3     1  UNL1        0.1740
     27 O         138.8210  139.8410  167.3939 O.3     1  UNL1       -0.4754
     28 C         139.7161  140.0313  168.5824 C.3     1  UNL1        0.2068
     29 C         140.8111  141.0557  168.5403 C.3     1  UNL1        0.0646
     30 C         142.2183  140.6371  168.2331 C.3     1  UNL1        0.0759
     31 N         142.7837  140.8572  166.8613 N.3     1  UNL1       -0.2738
     32 C         142.8740  142.1722  166.1454 C.3     1  UNL1        0.0721
     33 C         143.5041  141.9286  164.8061 C.3     1  UNL1        0.0187
     34 C         143.8033  140.4630  164.6944 C.3     1  UNL1        0.0174
     35 C         143.3580  139.8008  165.9645 C.3     1  UNL1        0.0576
     36 C         143.4679  138.3389  166.2821 C.3     1  UNL1        0.0173
@<TRIPOS>BOND
     1    23    24    1
     2    24    19    1
     3    19    20   am
     4    20    21    2
     5     1    20    1
     6     1     2    1
     7     2     3    1
     8     3    25    1
     9    25    26    1
    10     3     4    1
    11     4     5    1
    12     4     6    1
    13     6     7    1
    14     8     7    1
    15     8     9    1
    16     9    10   ar
    17    10    11   ar
    18    11    12   ar
    19    12    27    1
    20    27    28    1
    21    28    29    1
    22    29    30    1
    23    30    31    1
    24    31    32    1
    25    32    33    1
    26    33    34    1
    27    34    35    1
    28    35    36    1
    29    12    13   ar
    30    13    14   ar
    31    14    15    1
    32    15    16    1
    33    17    16    1
    34    17    18    1
    35    18     1    1
    36    18     4    1
    37    17     8    1
    38    14     9   ar
    39    35    31    1
    40    19    22    1
@<TRIPOS>MOLECULE
*****
 36 40 0 0 0
SMALL
GASTEIGER

@<TRIPOS>ATOM
      1 C         143.1513  139.2217  157.4919 C.3     1  UNL1        0.0790
      2 C         143.5852  140.1116  156.3651 C.3     1  UNL1        0.0386
      3 C         144.1341  141.3755  156.9577 C.3     1  UNL1        0.1157
      4 C         144.0394  141.2668  158.4506 C.3     1  UNL1        0.0255
      5 C         144.6333  142.5574  157.9695 C.3     1  UNL1        0.0024
      6 C         144.4279  142.2079  159.5523 C.3     1  UNL1        0.0027
      7 C         144.2089  141.8178  160.9840 C.3     1  UNL1        0.0044
      8 C         143.6014  140.4866  161.3142 C.3     1  UNL1        0.0220
      9 C         143.3824  140.0965  162.7460 C.ar    1  UNL1       -0.0263
     10 C         143.7709  141.0376  163.8475 C.ar    1  UNL1       -0.0015
     11 C         143.5519  140.6476  165.2792 C.ar    1  UNL1        0.0366
     12 C         142.9444  139.3164  165.6094 C.ar    1  UNL1        0.1382
     13 C         142.5560  138.3753  164.5078 C.ar    1  UNL1        0.0323
     14 C         142.7750  138.7654  163.0761 C.ar    1  UNL1       -0.0231
     15 C         142.3866  137.8243  161.9745 C.3     1  UNL1        0.0261
     16 C         142.6056  138.2143  160.5428 C.3     1  UNL1        0.0050
     17 C         143.2130  139.5455  160.2126 C.3     1  UNL1        0.0049
     18 C         143.4320  139.9356  158.7808 C.3     1  UNL1        0.0113
     19 N         143.4094  136.6814  157.0115 N.am    1  UNL1       -0.3043
     20 C         142.5434  137.8573  157.3539 C.2     1  UNL1        0.2221
     21 O         141.0694  137.6690  157.5582 O.2     1  UNL1       -0.2751
     22 H         144.3768  136.8051  156.8774 H       1  UNL1        0.1494
     23 C         143.5887  134.1021  157.2655 C.3     1  UNL1        0.0230
     24 C         142.8014  135.3171  156.8735 C.3     1  UNL1        0.0894
     25 O         144.6816  142.5433  156.1916 O.3     1  UNL1       -0.3536
     26 C         144.7607  142.4877  154.6948 C.3     1  UNL1        0.1740
     27 O         142.7254  138.9263  167.0412 O.3     1  UNL1       -0.4754
     28 C         142.1199  139.9067  168.0014 C.3     1  UNL1        0.2068
     29 C         140.6289  140.0017  168.1358 C.3     1  UNL1        0.0646
     30 C         139.8297  140.7509  167.1111 C.3     1  UNL1        0.0759
     31 N         139.5104  140.1094  165.7933 N.3     1  UNL1       -0.2738
     32 C         138.9483  138.7328  165.5960 C.3     1  UNL1        0.0721
     33 C         138.7876  138.5045  164.1222 C.3     1  UNL1        0.0187
     34 C         139.2505  139.7402  163.4087 C.3     1  UNL1        0.0174
     35 C         139.6972  140.7320  164.4415 C.3     1  UNL1        0.0576
     36 C         140.2360  142.1053  164.1701 C.3     1  UNL1        0.0173
@<TRIPOS>BOND
     1    23    24    1
     2    24    19    1
     3    19    20   am
     4    20    21    2
     5     1    20    1
     6     1     2    1
     7     2     3    1
     8     3    25    1
     9    25    26    1
    10     3     4    1
    11     4     5    1
    12     4     6    1
    13     6     7    1
    14     8     7    1
    15     8     9    1
    16     9    10   ar
    17    10    11   ar
    18    11    12   ar
    19    12    27    1
    20    27    28    1
    21    28    29    1
    22    29    30    1
    23    30    31    1
    24    31    32    1
    25    32    33    1
    26    33    34    1
    27    34    35    1
    28    35    36    1
    29    12    13   ar
    30    13    14   ar
    31    14    15    1
    32    15    16    1
    33    17    16    1
    34    17    18    1
    35    18     1    1
    36    18     4    1
    37    17     8    1
    38    14     9   ar
    39    35    31    1
    40    19    22    1
