@<TRIPOS>MOLECULE
*****
 40 43 0 0 0
SMALL
GASTEIGER

@<TRIPOS>ATOM
      1 C         142.3192  138.2929  158.6842 C.3     1  UNL1        0.1747
      2 N         140.7263  138.4674  160.7292 N.am    1  UNL1       -0.3018
      3 C         142.0984  138.5953  160.1368 C.2     1  UNL1        0.2425
      4 O         143.2496  139.0254  160.9968 O.2     1  UNL1       -0.2733
      5 H         139.9707  138.1851  160.1647 H       1  UNL1        0.1495
      6 N         140.1931  139.1975  164.2359 N.3     1  UNL1       -0.2711
      7 C         139.8617  139.8883  162.9464 C.3     1  UNL1        0.0933
      8 C         140.5055  138.7698  162.1817 C.3     1  UNL1        0.1035
      9 C         140.8369  138.0790  163.4713 C.3     1  UNL1        0.0933
     10 C         139.5306  140.1045  168.5935 C.3     1  UNL1        0.0992
     11 C         138.4424  139.4589  167.7879 C.3     1  UNL1        0.0125
     12 C         138.6633  139.1566  166.3354 C.3     1  UNL1        0.0165
     13 C         139.9723  139.4998  165.6884 C.3     1  UNL1        0.0576
     14 C         141.0605  140.1455  166.4940 C.3     1  UNL1        0.0165
     15 C         140.8397  140.4478  167.9464 C.3     1  UNL1        0.0125
     16 C         139.3099  140.4069  170.0459 C.2     1  UNL1        0.3164
     17 O         139.4618  139.3212  171.0697 O.2     1  UNL1       -0.2501
     18 O         138.9373  141.7952  170.4748 O.3     1  UNL1       -0.4485
     19 C         140.4768  143.7458  169.7163 C.3     1  UNL1        0.0513
     20 C         140.0092  142.7987  170.7814 C.3     1  UNL1        0.2086
     21 N         143.0752  137.0616  158.2809 N.pl3   1  UNL1       -0.3093
     22 H         143.8570  136.7706  158.8038 H       1  UNL1        0.1487
     23 C         142.6401  136.2738  157.0809 C.ar    1  UNL1        0.1505
     24 N         141.8051  136.7863  155.9451 N.ar    1  UNL1       -0.1466
     25 N         141.6125  135.6644  154.9683 N.ar    1  UNL1       -0.1812
     26 C         140.8397  135.7358  153.6847 C.2     1  UNL1        0.3328
     27 N         140.1732  137.0176  153.2809 N.am    1  UNL1       -0.3097
     28 O         140.7333  134.5257  152.8049 O.2     1  UNL1       -0.2479
     29 C         142.3284  134.4584  155.5005 C.ar    1  UNL1        0.0899
     30 C         142.4841  133.0661  154.9648 C.ar    1  UNL1        0.0193
     31 C         143.2748  132.0503  155.7348 C.ar    1  UNL1        0.0054
     32 C         143.9099  132.4269  157.0405 C.ar    1  UNL1        0.0716
     33 C         143.7542  133.8193  157.5762 C.ar    1  UNL1        0.0082
     34 C         142.9635  134.8351  156.8061 C.ar    1  UNL1        0.0509
     35 H         140.2429  137.8119  153.8583 H       1  UNL1        0.1467
     36 H         139.6659  137.0645  152.4384 H       1  UNL1        0.1467
     37 C         144.7006  131.4111  157.8105 C.3     1  UNL1        0.4186
     38 F         145.4913  130.3953  158.5805 F       1  UNL1       -0.1659
     39 F         145.8754  132.3435  157.8343 F       1  UNL1       -0.1659
     40 F         143.5259  130.4787  157.7867 F       1  UNL1       -0.1659
@<TRIPOS>BOND
     1    19    20    1
     2    20    18    1
     3    18    16    1
     4    16    17    2
     5    10    16    1
     6    10    11    1
     7    11    12    1
     8    12    13    1
     9    13     6    1
    10     6     7    1
    11     7     8    1
    12     8     2    1
    13     2     3   am
    14     3     4    2
    15     3     1    1
    16     1    21    1
    17    21    23    1
    18    23    24   ar
    19    24    25   ar
    20    25    26   am
    21    26    27   am
    22    26    28    2
    23    25    29   ar
    24    29    30   ar
    25    30    31   ar
    26    31    32   ar
    27    32    37    1
    28    37    38    1
    29    37    39    1
    30    37    40    1
    31    32    33   ar
    32    33    34   ar
    33     8     9    1
    34    13    14    1
    35    14    15    1
    36    15    10    1
    37     9     6    1
    38    34    23   ar
    39    34    29   ar
    40     2     5    1
    41    21    22    1
    42    27    35    1
    43    27    36    1
@<TRIPOS>MOLECULE
*****
 40 43 0 0 0
SMALL
GASTEIGER

@<TRIPOS>ATOM
      1 C         137.7830  138.8956  166.5811 C.3     1  UNL1        0.1747
      2 N         137.9726  141.0467  165.1367 N.am    1  UNL1       -0.3018
      3 C         138.1951  139.5732  165.3080 C.2     1  UNL1        0.2425
      4 O         138.8295  138.7774  164.2061 O.2     1  UNL1       -0.2733
      5 H         137.5562  141.5690  165.8600 H       1  UNL1        0.1495
      6 N         138.9676  142.6827  162.0630 N.3     1  UNL1       -0.2711
      7 C         139.6818  141.9127  163.1340 C.3     1  UNL1        0.0933
      8 C         138.3847  141.7244  163.8636 C.3     1  UNL1        0.1035
      9 C         137.6706  142.4943  162.7926 C.3     1  UNL1        0.0933
     10 C         140.2038  144.7157  158.2435 C.3     1  UNL1        0.0992
     11 C         140.5475  145.3328  159.5668 C.3     1  UNL1        0.0125
     12 C         140.1354  144.6551  160.8400 C.3     1  UNL1        0.0165
     13 C         139.3796  143.3604  160.7898 C.3     1  UNL1        0.0576
     14 C         139.0359  142.7433  159.4666 C.3     1  UNL1        0.0165
     15 C         139.4479  143.4210  158.1934 C.3     1  UNL1        0.0125
     16 C         140.6157  145.3933  156.9703 C.2     1  UNL1        0.3164
     17 O         141.9524  146.0676  156.8780 O.2     1  UNL1       -0.2501
     18 O         139.6910  145.3965  155.7892 O.3     1  UNL1       -0.4485
     19 C         138.9122  147.8205  156.3071 C.3     1  UNL1        0.0513
     20 C         139.0433  146.6753  155.3472 C.3     1  UNL1        0.2086
     21 N         138.7482  138.7981  167.7253 N.pl3   1  UNL1       -0.3093
     22 H         138.8913  137.9348  168.1765 H       1  UNL1        0.1487
     23 C         139.4953  140.0160  168.1820 C.ar    1  UNL1        0.1505
     24 N         139.0948  140.9266  169.3047 N.ar    1  UNL1       -0.1466
     25 N         140.1261  142.0104  169.4127 N.ar    1  UNL1       -0.1812
     26 C         140.1206  143.1373  170.4028 C.2     1  UNL1        0.3328
     27 N         139.0102  143.2495  171.4052 N.am    1  UNL1       -0.3097
     28 O         141.2252  144.1519  170.3906 O.2     1  UNL1       -0.2479
     29 C         141.1640  141.7696  168.3569 C.ar    1  UNL1        0.0899
     30 C         142.4137  142.5136  167.9898 C.ar    1  UNL1        0.0193
     31 C         143.2736  142.0248  166.8621 C.ar    1  UNL1        0.0054
     32 C         142.8837  140.7921  166.1015 C.ar    1  UNL1        0.0716
     33 C         141.6340  140.0482  166.4686 C.ar    1  UNL1        0.0082
     34 C         140.7742  140.5370  167.5963 C.ar    1  UNL1        0.0509
     35 H         138.2851  142.5835  171.4132 H       1  UNL1        0.1467
     36 H         139.0065  143.9890  172.0550 H       1  UNL1        0.1467
     37 C         143.7436  140.3034  164.9738 C.3     1  UNL1        0.4186
     38 F         144.6035  139.8147  163.8461 F       1  UNL1       -0.1659
     39 F         143.8088  138.9472  165.6112 F       1  UNL1       -0.1659
     40 F         143.6785  141.6596  164.3364 F       1  UNL1       -0.1659
@<TRIPOS>BOND
     1    19    20    1
     2    20    18    1
     3    18    16    1
     4    16    17    2
     5    10    16    1
     6    10    11    1
     7    11    12    1
     8    12    13    1
     9    13     6    1
    10     6     7    1
    11     7     8    1
    12     8     2    1
    13     2     3   am
    14     3     4    2
    15     3     1    1
    16     1    21    1
    17    21    23    1
    18    23    24   ar
    19    24    25   ar
    20    25    26   am
    21    26    27   am
    22    26    28    2
    23    25    29   ar
    24    29    30   ar
    25    30    31   ar
    26    31    32   ar
    27    32    37    1
    28    37    38    1
    29    37    39    1
    30    37    40    1
    31    32    33   ar
    32    33    34   ar
    33     8     9    1
    34    13    14    1
    35    14    15    1
    36    15    10    1
    37     9     6    1
    38    34    23   ar
    39    34    29   ar
    40     2     5    1
    41    21    22    1
    42    27    35    1
    43    27    36    1
@<TRIPOS>MOLECULE
*****
 40 43 0 0 0
SMALL
GASTEIGER

@<TRIPOS>ATOM
      1 C         143.3032  142.5009  165.8440 C.3     1  UNL1        0.1747
      2 N         143.5395  143.2407  163.3648 N.am    1  UNL1       -0.3018
      3 C         142.6744  142.8909  164.5391 C.2     1  UNL1        0.2425
      4 O         141.1807  142.9311  164.4087 O.2     1  UNL1       -0.2733
      5 H         144.5199  143.2144  163.4504 H       1  UNL1        0.1495
      6 N         142.0215  144.1824  160.2147 N.3     1  UNL1       -0.2711
      7 C         141.8604  144.6165  161.6414 C.3     1  UNL1        0.0933
      8 C         142.9108  143.6308  162.0599 C.3     1  UNL1        0.1035
      9 C         143.0718  143.1967  160.6332 C.3     1  UNL1        0.0933
     10 C         140.1353  145.3525  156.3002 C.3     1  UNL1        0.0992
     11 C         141.3595  146.0696  156.7868 C.3     1  UNL1        0.0125
     12 C         141.9883  145.6796  158.0916 C.3     1  UNL1        0.0165
     13 C         141.3928  144.5724  158.9098 C.3     1  UNL1        0.0576
     14 C         140.1685  143.8552  158.4232 C.3     1  UNL1        0.0165
     15 C         139.5398  144.2452  157.1185 C.3     1  UNL1        0.0125
     16 C         139.5064  145.7424  154.9954 C.2     1  UNL1        0.3164
     17 O         139.8744  145.0125  153.7377 O.2     1  UNL1       -0.2501
     18 O         138.5095  146.8623  154.9483 O.3     1  UNL1       -0.4485
     19 C         140.2174  148.6319  154.1108 C.3     1  UNL1        0.0513
     20 C         138.9817  148.2847  154.8869 C.3     1  UNL1        0.2086
     21 N         143.1376  141.1054  166.3689 N.pl3   1  UNL1       -0.3093
     22 H         143.8450  140.4368  166.2214 H       1  UNL1        0.1487
     23 C         141.8941  140.7288  167.1185 C.ar    1  UNL1        0.1505
     24 N         141.6294  140.9851  168.5725 N.ar    1  UNL1       -0.1466
     25 N         140.2688  140.4444  168.8983 N.ar    1  UNL1       -0.1812
     26 C         139.6014  140.4868  170.2410 C.2     1  UNL1        0.3328
     27 N         140.3045  141.1135  171.4086 N.am    1  UNL1       -0.3097
     28 O         138.2312  139.9025  170.4164 O.2     1  UNL1       -0.2479
     29 C         139.6925  139.8538  167.6456 C.ar    1  UNL1        0.0899
     30 C         138.3829  139.1787  167.3645 C.ar    1  UNL1        0.0193
     31 C         138.0778  138.6794  165.9834 C.ar    1  UNL1        0.0054
     32 C         139.0823  138.8551  164.8834 C.ar    1  UNL1        0.0716
     33 C         140.3919  139.5302  165.1645 C.ar    1  UNL1        0.0082
     34 C         140.6970  140.0296  166.5456 C.ar    1  UNL1        0.0509
     35 H         141.2039  141.4970  171.2935 H       1  UNL1        0.1467
     36 H         139.8666  141.1413  172.2898 H       1  UNL1        0.1467
     37 C         138.7772  138.3558  163.5022 C.3     1  UNL1        0.4186
     38 F         138.4721  137.8564  162.1211 F       1  UNL1       -0.1659
     39 F         137.9422  139.5752  163.2457 F       1  UNL1       -0.1659
     40 F         139.6121  137.1363  163.7587 F       1  UNL1       -0.1659
@<TRIPOS>BOND
     1    19    20    1
     2    20    18    1
     3    18    16    1
     4    16    17    2
     5    10    16    1
     6    10    11    1
     7    11    12    1
     8    12    13    1
     9    13     6    1
    10     6     7    1
    11     7     8    1
    12     8     2    1
    13     2     3   am
    14     3     4    2
    15     3     1    1
    16     1    21    1
    17    21    23    1
    18    23    24   ar
    19    24    25   ar
    20    25    26   am
    21    26    27   am
    22    26    28    2
    23    25    29   ar
    24    29    30   ar
    25    30    31   ar
    26    31    32   ar
    27    32    37    1
    28    37    38    1
    29    37    39    1
    30    37    40    1
    31    32    33   ar
    32    33    34   ar
    33     8     9    1
    34    13    14    1
    35    14    15    1
    36    15    10    1
    37     9     6    1
    38    34    23   ar
    39    34    29   ar
    40     2     5    1
    41    21    22    1
    42    27    35    1
    43    27    36    1
@<TRIPOS>MOLECULE
*****
 40 43 0 0 0
SMALL
GASTEIGER

@<TRIPOS>ATOM
      1 C         142.8246  137.6854  159.3887 C.3     1  UNL1        0.1747
      2 N         143.3271  138.1116  161.9018 N.am    1  UNL1       -0.3018
      3 C         142.3469  138.0234  160.7699 C.2     1  UNL1        0.2425
      4 O         140.8889  138.2731  161.0190 O.2     1  UNL1       -0.2733
      5 H         144.2840  137.9477  161.7383 H       1  UNL1        0.1495
      6 N         142.1737  138.9276  165.2362 N.3     1  UNL1       -0.2711
      7 C         143.1831  139.5091  164.2911 C.3     1  UNL1        0.0933
      8 C         142.8493  138.4496  163.2829 C.3     1  UNL1        0.1035
      9 C         141.8401  137.8682  164.2281 C.3     1  UNL1        0.0933
     10 C         140.7405  139.9416  169.3796 C.3     1  UNL1        0.0992
     11 C         142.1620  139.5155  169.1610 C.3     1  UNL1        0.0125
     12 C         142.6397  139.1775  167.7799 C.3     1  UNL1        0.0165
     13 C         141.6960  139.2656  166.6173 C.3     1  UNL1        0.0576
     14 C         140.2745  139.6916  166.8359 C.3     1  UNL1        0.0165
     15 C         139.7967  140.0296  168.2169 C.3     1  UNL1        0.0125
     16 C         140.2626  140.2795  170.7606 C.2     1  UNL1        0.3164
     17 O         139.3394  139.3450  171.4846 O.2     1  UNL1       -0.2501
     18 O         140.7081  141.5522  171.4179 O.3     1  UNL1       -0.4485
     19 C         140.4210  143.5588  169.7926 C.3     1  UNL1        0.0513
     20 C         141.3082  142.6522  170.5932 C.3     1  UNL1        0.2086
     21 N         143.3525  138.7662  158.4923 N.pl3   1  UNL1       -0.3093
     22 H         144.0786  138.5682  157.8575 H       1  UNL1        0.1487
     23 C         142.7742  140.1484  158.5631 C.ar    1  UNL1        0.1505
     24 N         141.7845  140.7402  157.6039 N.ar    1  UNL1       -0.1466
     25 N         141.4828  142.1391  158.0535 N.ar    1  UNL1       -0.1812
     26 C         140.5428  143.0971  157.3837 C.2     1  UNL1        0.3328
     27 N         139.8043  142.6814  156.1459 N.am    1  UNL1       -0.3097
     28 O         140.3412  144.4706  157.9515 O.2     1  UNL1       -0.2479
     29 C         142.2860  142.4118  159.2906 C.ar    1  UNL1        0.0899
     30 C         142.3937  143.6214  160.1710 C.ar    1  UNL1        0.0193
     31 C         143.2996  143.6007  161.3663 C.ar    1  UNL1        0.0054
     32 C         144.0978  142.3704  161.6813 C.ar    1  UNL1        0.0716
     33 C         143.9901  141.1607  160.8009 C.ar    1  UNL1        0.0082
     34 C         143.0842  141.1814  159.6056 C.ar    1  UNL1        0.0509
     35 H         139.9366  141.7798  155.7731 H       1  UNL1        0.1467
     36 H         139.1874  143.3101  155.7062 H       1  UNL1        0.1467
     37 C         145.0038  142.3497  162.8767 C.3     1  UNL1        0.4186
     38 F         145.9097  142.3291  164.0720 F       1  UNL1       -0.1659
     39 F         144.5849  143.7489  163.2183 F       1  UNL1       -0.1659
     40 F         145.4226  140.9505  162.5350 F       1  UNL1       -0.1659
@<TRIPOS>BOND
     1    19    20    1
     2    20    18    1
     3    18    16    1
     4    16    17    2
     5    10    16    1
     6    10    11    1
     7    11    12    1
     8    12    13    1
     9    13     6    1
    10     6     7    1
    11     7     8    1
    12     8     2    1
    13     2     3   am
    14     3     4    2
    15     3     1    1
    16     1    21    1
    17    21    23    1
    18    23    24   ar
    19    24    25   ar
    20    25    26   am
    21    26    27   am
    22    26    28    2
    23    25    29   ar
    24    29    30   ar
    25    30    31   ar
    26    31    32   ar
    27    32    37    1
    28    37    38    1
    29    37    39    1
    30    37    40    1
    31    32    33   ar
    32    33    34   ar
    33     8     9    1
    34    13    14    1
    35    14    15    1
    36    15    10    1
    37     9     6    1
    38    34    23   ar
    39    34    29   ar
    40     2     5    1
    41    21    22    1
    42    27    35    1
    43    27    36    1
@<TRIPOS>MOLECULE
*****
 40 43 0 0 0
SMALL
GASTEIGER

@<TRIPOS>ATOM
      1 C         143.0368  142.6548  164.4243 C.3     1  UNL1        0.1747
      2 N         141.6531  141.3881  162.6269 N.am    1  UNL1       -0.3018
      3 C         142.9785  141.7530  163.2270 C.2     1  UNL1        0.2425
      4 O         144.2455  141.2161  162.6300 O.2     1  UNL1       -0.2733
      5 H         140.8215  141.7405  163.0187 H       1  UNL1        0.1495
      6 N         141.5123  139.2109  159.7366 N.3     1  UNL1       -0.2711
      7 C         141.4622  139.0066  161.2217 C.3     1  UNL1        0.0933
      8 C         141.5948  140.4863  161.4296 C.3     1  UNL1        0.1035
      9 C         141.6448  140.6905  159.9445 C.3     1  UNL1        0.0933
     10 C         141.3372  136.5055  156.1448 C.3     1  UNL1        0.0992
     11 C         140.1184  137.2708  156.5674 C.3     1  UNL1        0.0125
     12 C         140.1767  138.1726  157.7647 C.3     1  UNL1        0.0165
     13 C         141.4539  138.3091  158.5393 C.3     1  UNL1        0.0576
     14 C         142.6728  137.5438  158.1167 C.3     1  UNL1        0.0165
     15 C         142.6145  136.6420  156.9196 C.3     1  UNL1        0.0125
     16 C         141.2790  135.6037  154.9477 C.2     1  UNL1        0.3164
     17 O         141.4284  136.1762  153.5693 O.2     1  UNL1       -0.2501
     18 O         141.0714  134.1292  155.1288 O.3     1  UNL1       -0.4485
     19 C         143.0661  132.4687  155.0103 C.3     1  UNL1        0.0513
     20 C         142.1170  133.3035  155.8180 C.3     1  UNL1        0.2086
     21 N         143.7582  142.2116  165.6626 N.pl3   1  UNL1       -0.3093
     22 H         144.7175  141.9942  165.6223 H       1  UNL1        0.1487
     23 C         143.0178  142.0997  166.9624 C.ar    1  UNL1        0.1505
     24 N         143.3764  142.7923  168.2437 N.ar    1  UNL1       -0.1466
     25 N         142.3691  142.3962  169.2822 N.ar    1  UNL1       -0.1812
     26 C         142.3467  142.8566  170.7096 C.2     1  UNL1        0.3328
     27 N         143.3998  143.8005  171.2098 N.am    1  UNL1       -0.3097
     28 O         141.2714  142.3732  171.6369 O.2     1  UNL1       -0.2479
     29 C         141.3880  141.4589  168.6427 C.ar    1  UNL1        0.0899
     30 C         140.1814  140.7486  169.1806 C.ar    1  UNL1        0.0193
     31 C         139.3757  139.8550  168.2849 C.ar    1  UNL1        0.0054
     32 C         139.7767  139.6718  166.8511 C.ar    1  UNL1        0.0716
     33 C         140.9833  140.3821  166.3131 C.ar    1  UNL1        0.0082
     34 C         141.7890  141.2757  167.2089 C.ar    1  UNL1        0.0509
     35 H         144.1057  144.1178  170.6013 H       1  UNL1        0.1467
     36 H         143.3852  144.1026  172.1467 H       1  UNL1        0.1467
     37 C         138.9709  138.7782  165.9553 C.3     1  UNL1        0.4186
     38 F         138.1653  137.8847  165.0595 F       1  UNL1       -0.1659
     39 F         137.7223  139.1685  166.6891 F       1  UNL1       -0.1659
     40 F         140.2196  138.3880  165.2216 F       1  UNL1       -0.1659
@<TRIPOS>BOND
     1    19    20    1
     2    20    18    1
     3    18    16    1
     4    16    17    2
     5    10    16    1
     6    10    11    1
     7    11    12    1
     8    12    13    1
     9    13     6    1
    10     6     7    1
    11     7     8    1
    12     8     2    1
    13     2     3   am
    14     3     4    2
    15     3     1    1
    16     1    21    1
    17    21    23    1
    18    23    24   ar
    19    24    25   ar
    20    25    26   am
    21    26    27   am
    22    26    28    2
    23    25    29   ar
    24    29    30   ar
    25    30    31   ar
    26    31    32   ar
    27    32    37    1
    28    37    38    1
    29    37    39    1
    30    37    40    1
    31    32    33   ar
    32    33    34   ar
    33     8     9    1
    34    13    14    1
    35    14    15    1
    36    15    10    1
    37     9     6    1
    38    34    23   ar
    39    34    29   ar
    40     2     5    1
    41    21    22    1
    42    27    35    1
    43    27    36    1
@<TRIPOS>MOLECULE
*****
 40 43 0 0 0
SMALL
GASTEIGER

@<TRIPOS>ATOM
      1 C         137.8539  140.1509  159.5456 C.3     1  UNL1        0.1747
      2 N         138.9225  141.3355  161.5961 N.am    1  UNL1       -0.3018
      3 C         138.1467  140.1901  161.0163 C.2     1  UNL1        0.2425
      4 O         137.6636  139.0841  161.9070 O.2     1  UNL1       -0.2733
      5 H         139.2395  142.0614  161.0115 H       1  UNL1        0.1495
      6 N         139.6292  141.4304  165.1466 N.3     1  UNL1       -0.2711
      7 C         138.6442  142.1107  164.2426 C.3     1  UNL1        0.0933
      8 C         139.2152  141.3748  163.0667 C.3     1  UNL1        0.1035
      9 C         140.2001  140.6946  163.9707 C.3     1  UNL1        0.0933
     10 C         140.5074  141.5483  169.5585 C.3     1  UNL1        0.0992
     11 C         140.8953  142.7046  168.6854 C.3     1  UNL1        0.0125
     12 C         140.6025  142.6654  167.2148 C.3     1  UNL1        0.0165
     13 C         139.9219  141.4697  166.6172 C.3     1  UNL1        0.0576
     14 C         139.5340  140.3133  167.4903 C.3     1  UNL1        0.0165
     15 C         139.8268  140.3526  168.9608 C.3     1  UNL1        0.0125
     16 C         140.8001  141.5874  171.0291 C.2     1  UNL1        0.3164
     17 O         140.0424  142.5267  171.9199 O.2     1  UNL1       -0.2501
     18 O         141.8507  140.6873  171.6089 O.3     1  UNL1       -0.4485
     19 C         142.7664  138.6730  170.2473 C.3     1  UNL1        0.0513
     20 C         142.9009  140.0902  170.7198 C.3     1  UNL1        0.2086
     21 N         138.6364  139.2373  158.6493 N.pl3   1  UNL1       -0.3093
     22 H         138.1692  138.5629  158.1050 H       1  UNL1        0.1487
     23 C         140.1305  139.3514  158.5821 C.ar    1  UNL1        0.1505
     24 N         140.9246  139.8567  157.4142 N.ar    1  UNL1       -0.1466
     25 N         142.3777  139.7978  157.7815 N.ar    1  UNL1       -0.1812
     26 C         143.5254  140.2085  156.9073 C.2     1  UNL1        0.3328
     27 N         143.2658  140.7354  155.5270 N.am    1  UNL1       -0.3097
     28 O         144.9326  140.0923  157.4133 O.2     1  UNL1       -0.2479
     29 C         142.4818  139.2560  159.1764 C.ar    1  UNL1        0.0899
     30 C         143.6617  138.9783  160.0598 C.ar    1  UNL1        0.0193
     31 C         143.4528  138.4247  161.4381 C.ar    1  UNL1        0.0054
     32 C         142.0639  138.1488  161.9330 C.ar    1  UNL1        0.0716
     33 C         140.8839  138.4265  161.0495 C.ar    1  UNL1        0.0082
     34 C         141.0929  138.9801  159.6712 C.ar    1  UNL1        0.0509
     35 H         142.3422  140.8116  155.1949 H       1  UNL1        0.1467
     36 H         144.0191  141.0049  154.9533 H       1  UNL1        0.1467
     37 C         141.8550  137.5951  163.3114 C.3     1  UNL1        0.4186
     38 F         141.6460  137.0415  164.6897 F       1  UNL1       -0.1659
     39 F         143.1418  138.2227  163.7586 F       1  UNL1       -0.1659
     40 F         140.5681  136.9675  162.8642 F       1  UNL1       -0.1659
@<TRIPOS>BOND
     1    19    20    1
     2    20    18    1
     3    18    16    1
     4    16    17    2
     5    10    16    1
     6    10    11    1
     7    11    12    1
     8    12    13    1
     9    13     6    1
    10     6     7    1
    11     7     8    1
    12     8     2    1
    13     2     3   am
    14     3     4    2
    15     3     1    1
    16     1    21    1
    17    21    23    1
    18    23    24   ar
    19    24    25   ar
    20    25    26   am
    21    26    27   am
    22    26    28    2
    23    25    29   ar
    24    29    30   ar
    25    30    31   ar
    26    31    32   ar
    27    32    37    1
    28    37    38    1
    29    37    39    1
    30    37    40    1
    31    32    33   ar
    32    33    34   ar
    33     8     9    1
    34    13    14    1
    35    14    15    1
    36    15    10    1
    37     9     6    1
    38    34    23   ar
    39    34    29   ar
    40     2     5    1
    41    21    22    1
    42    27    35    1
    43    27    36    1
@<TRIPOS>MOLECULE
*****
 40 43 0 0 0
SMALL
GASTEIGER

@<TRIPOS>ATOM
      1 C         138.7159  139.6199  158.9848 C.3     1  UNL1        0.1747
      2 N         138.4932  139.5480  161.5722 N.am    1  UNL1       -0.3018
      3 C         139.3475  139.6627  160.3446 C.2     1  UNL1        0.2425
      4 O         140.8333  139.8202  160.4769 O.2     1  UNL1       -0.2733
      5 H         137.5180  139.4446  161.4854 H       1  UNL1        0.1495
      6 N         140.0180  139.6513  164.8553 N.3     1  UNL1       -0.2711
      7 C         139.7047  140.6690  163.7988 C.3     1  UNL1        0.0933
      8 C         139.1248  139.5907  162.9321 C.3     1  UNL1        0.1035
      9 C         139.4381  138.5731  163.9886 C.3     1  UNL1        0.0933
     10 C         141.9128  139.7796  168.9349 C.3     1  UNL1        0.0992
     11 C         142.7524  139.4869  167.7269 C.3     1  UNL1        0.0125
     12 C         142.1208  139.4442  166.3670 C.3     1  UNL1        0.0165
     13 C         140.6496  139.6941  166.2151 C.3     1  UNL1        0.0576
     14 C         139.8100  139.9867  167.4232 C.3     1  UNL1        0.0165
     15 C         140.4415  140.0295  168.7830 C.3     1  UNL1        0.0125
     16 C         142.5442  139.8224  170.2948 C.2     1  UNL1        0.3164
     17 O         143.4173  138.6917  170.7523 O.2     1  UNL1       -0.2501
     18 O         142.3026  140.9959  171.1973 O.3     1  UNL1       -0.4485
     19 C         141.5533  143.2156  170.0740 C.3     1  UNL1        0.0513
     20 C         142.6189  142.3838  170.7240 C.3     1  UNL1        0.2086
     21 N         138.3275  140.8956  158.2977 N.pl3   1  UNL1       -0.3093
     22 H         137.5085  140.9315  157.7525 H       1  UNL1        0.1487
     23 C         139.1868  142.1167  158.4416 C.ar    1  UNL1        0.1505
     24 N         140.1356  142.6534  157.4112 N.ar    1  UNL1       -0.1466
     25 N         140.7833  143.8838  157.9738 N.ar    1  UNL1       -0.1812
     26 C         141.8009  144.7402  157.2802 C.2     1  UNL1        0.3328
     27 N         142.2565  144.3901  155.8945 N.am    1  UNL1       -0.3097
     28 O         142.3629  145.9465  157.9720 O.2     1  UNL1       -0.2479
     29 C         140.2349  144.1074  159.3520 C.ar    1  UNL1        0.0899
     30 C         140.5066  145.1644  160.3810 C.ar    1  UNL1        0.0193
     31 C         139.7915  145.1292  161.6991 C.ar    1  UNL1        0.0054
     32 C         138.8048  144.0371  161.9881 C.ar    1  UNL1        0.0716
     33 C         138.5331  142.9801  160.9591 C.ar    1  UNL1        0.0082
     34 C         139.2482  143.0152  159.6410 C.ar    1  UNL1        0.0509
     35 H         141.8877  143.5983  155.4403 H       1  UNL1        0.1467
     36 H         142.9244  144.9522  155.4392 H       1  UNL1        0.1467
     37 C         138.0896  144.0020  163.3063 C.3     1  UNL1        0.4186
     38 F         137.3746  143.9669  164.6244 F       1  UNL1       -0.1659
     39 F         137.2838  142.8268  162.8378 F       1  UNL1       -0.1659
     40 F         138.8955  145.1771  163.7747 F       1  UNL1       -0.1659
@<TRIPOS>BOND
     1    19    20    1
     2    20    18    1
     3    18    16    1
     4    16    17    2
     5    10    16    1
     6    10    11    1
     7    11    12    1
     8    12    13    1
     9    13     6    1
    10     6     7    1
    11     7     8    1
    12     8     2    1
    13     2     3   am
    14     3     4    2
    15     3     1    1
    16     1    21    1
    17    21    23    1
    18    23    24   ar
    19    24    25   ar
    20    25    26   am
    21    26    27   am
    22    26    28    2
    23    25    29   ar
    24    29    30   ar
    25    30    31   ar
    26    31    32   ar
    27    32    37    1
    28    37    38    1
    29    37    39    1
    30    37    40    1
    31    32    33   ar
    32    33    34   ar
    33     8     9    1
    34    13    14    1
    35    14    15    1
    36    15    10    1
    37     9     6    1
    38    34    23   ar
    39    34    29   ar
    40     2     5    1
    41    21    22    1
    42    27    35    1
    43    27    36    1
@<TRIPOS>MOLECULE
*****
 40 43 0 0 0
SMALL
GASTEIGER

@<TRIPOS>ATOM
      1 C         138.6265  139.9370  157.7269 C.3     1  UNL1        0.1747
      2 N         138.1605  139.2334  160.1840 N.am    1  UNL1       -0.3018
      3 C         138.8723  140.1098  159.1965 C.2     1  UNL1        0.2425
      4 O         139.8300  141.1588  159.6785 O.2     1  UNL1       -0.2733
      5 H         137.5320  138.5448  159.8676 H       1  UNL1        0.1495
      6 N         138.7541  139.6503  163.7320 N.3     1  UNL1       -0.2711
      7 C         139.1709  138.6472  162.6975 C.3     1  UNL1        0.0933
      8 C         138.4064  139.4061  161.6536 C.3     1  UNL1        0.1035
      9 C         137.9896  140.4091  162.6881 C.3     1  UNL1        0.0933
     10 C         139.4916  140.1684  168.1408 C.3     1  UNL1        0.0992
     11 C         138.3377  139.3358  167.6662 C.3     1  UNL1        0.0125
     12 C         138.0919  139.1631  166.1966 C.3     1  UNL1        0.0165
     13 C         138.9999  139.8230  165.2016 C.3     1  UNL1        0.0576
     14 C         140.1538  140.6556  165.6762 C.3     1  UNL1        0.0165
     15 C         140.3997  140.8283  167.1457 C.3     1  UNL1        0.0125
     16 C         139.7376  140.3412  169.6103 C.2     1  UNL1        0.3164
     17 O         140.6859  139.4248  170.3250 O.2     1  UNL1       -0.2501
     18 O         139.0351  141.4306  170.3653 O.3     1  UNL1       -0.4485
     19 C         140.5007  143.4409  169.6165 C.3     1  UNL1        0.0513
     20 C         139.7582  142.7037  170.6913 C.3     1  UNL1        0.2086
     21 N         139.2151  138.7638  157.0008 N.pl3   1  UNL1       -0.3093
     22 H         138.6367  138.0185  156.7191 H       1  UNL1        0.1487
     23 C         140.6850  138.7261  156.7039 C.ar    1  UNL1        0.1505
     24 N         141.6339  139.8837  156.8003 N.ar    1  UNL1       -0.1466
     25 N         142.9993  139.3971  156.4144 N.ar    1  UNL1       -0.1812
     26 C         144.2503  140.2238  156.3711 C.2     1  UNL1        0.3328
     27 N         144.2012  141.6781  156.7352 N.am    1  UNL1       -0.3097
     28 O         145.5502  139.5962  155.9636 O.2     1  UNL1       -0.2479
     29 C         142.8942  137.9388  156.0795 C.ar    1  UNL1        0.0899
     30 C         143.9162  136.9349  155.6347 C.ar    1  UNL1        0.0193
     31 C         143.5078  135.5163  155.3688 C.ar    1  UNL1        0.0054
     32 C         142.0774  135.1016  155.5477 C.ar    1  UNL1        0.0716
     33 C         141.0554  136.1054  155.9925 C.ar    1  UNL1        0.0082
     34 C         141.4639  137.5240  156.2584 C.ar    1  UNL1        0.0509
     35 H         143.3479  142.0901  157.0027 H       1  UNL1        0.1467
     36 H         145.0222  142.2207  156.7068 H       1  UNL1        0.1467
     37 C         141.6690  133.6829  155.2818 C.3     1  UNL1        0.4186
     38 F         141.2606  132.2643  155.0160 F       1  UNL1       -0.1659
     39 F         141.1120  134.0927  153.9507 F       1  UNL1       -0.1659
     40 F         142.2259  133.2731  156.6129 F       1  UNL1       -0.1659
@<TRIPOS>BOND
     1    19    20    1
     2    20    18    1
     3    18    16    1
     4    16    17    2
     5    10    16    1
     6    10    11    1
     7    11    12    1
     8    12    13    1
     9    13     6    1
    10     6     7    1
    11     7     8    1
    12     8     2    1
    13     2     3   am
    14     3     4    2
    15     3     1    1
    16     1    21    1
    17    21    23    1
    18    23    24   ar
    19    24    25   ar
    20    25    26   am
    21    26    27   am
    22    26    28    2
    23    25    29   ar
    24    29    30   ar
    25    30    31   ar
    26    31    32   ar
    27    32    37    1
    28    37    38    1
    29    37    39    1
    30    37    40    1
    31    32    33   ar
    32    33    34   ar
    33     8     9    1
    34    13    14    1
    35    14    15    1
    36    15    10    1
    37     9     6    1
    38    34    23   ar
    39    34    29   ar
    40     2     5    1
    41    21    22    1
    42    27    35    1
    43    27    36    1
@<TRIPOS>MOLECULE
*****
 40 43 0 0 0
SMALL
GASTEIGER

@<TRIPOS>ATOM
      1 C         144.4900  140.8923  163.0106 C.3     1  UNL1        0.1747
      2 N         143.7646  140.4394  160.5574 N.am    1  UNL1       -0.3018
      3 C         144.1497  139.9275  161.9137 C.2     1  UNL1        0.2425
      4 O         144.1945  138.4508  162.1731 O.2     1  UNL1       -0.2733
      5 H         143.7352  141.4086  160.3871 H       1  UNL1        0.1495
      6 N         142.9430  138.1099  157.9093 N.3     1  UNL1       -0.2711
      7 C         142.9759  138.0440  159.4074 C.3     1  UNL1        0.0933
      8 C         143.4243  139.4745  159.4605 C.3     1  UNL1        0.1035
      9 C         143.3914  139.5403  157.9623 C.3     1  UNL1        0.0933
     10 C         141.9220  135.2153  154.6185 C.3     1  UNL1        0.0992
     11 C         140.8337  135.9912  155.2993 C.3     1  UNL1        0.0125
     12 C         141.1740  136.9561  156.3962 C.3     1  UNL1        0.0165
     13 C         142.6027  137.1450  156.8123 C.3     1  UNL1        0.0576
     14 C         143.6910  136.3691  156.1316 C.3     1  UNL1        0.0165
     15 C         143.3507  135.4043  155.0347 C.3     1  UNL1        0.0125
     16 C         141.5819  134.2504  153.5216 C.2     1  UNL1        0.3164
     17 O         141.8501  134.6154  152.0917 O.2     1  UNL1       -0.2501
     18 O         140.9733  132.9204  153.8547 O.3     1  UNL1       -0.4485
     19 C         141.6567  130.7594  155.1248 C.3     1  UNL1        0.0513
     20 C         141.3415  132.2259  155.1322 C.3     1  UNL1        0.2086
     21 N         143.5941  141.0135  164.2076 N.pl3   1  UNL1       -0.3093
     22 H         143.8627  140.6132  165.0660 H       1  UNL1        0.1487
     23 C         142.2890  141.7446  164.0967 C.ar    1  UNL1        0.1505
     24 N         142.1110  143.1704  163.6662 N.ar    1  UNL1       -0.1466
     25 N         140.6448  143.4852  163.7003 N.ar    1  UNL1       -0.1812
     26 C         140.0169  144.8003  163.3451 C.2     1  UNL1        0.3328
     27 N         140.8774  145.9485  162.9076 N.am    1  UNL1       -0.3097
     28 O         138.5286  144.9675  163.4275 O.2     1  UNL1       -0.2479
     29 C         139.9167  142.2540  164.1519 C.ar    1  UNL1        0.0899
     30 C         138.4597  141.9734  164.3716 C.ar    1  UNL1        0.0193
     31 C         138.0189  140.6171  164.8364 C.ar    1  UNL1        0.0054
     32 C         139.0351  139.5413  165.0814 C.ar    1  UNL1        0.0716
     33 C         140.4921  139.8219  164.8617 C.ar    1  UNL1        0.0082
     34 C         140.9329  141.1782  164.3969 C.ar    1  UNL1        0.0509
     35 H         141.8543  145.8388  162.8535 H       1  UNL1        0.1467
     36 H         140.4653  146.8117  162.6745 H       1  UNL1        0.1467
     37 C         138.5942  138.1850  165.5462 C.3     1  UNL1        0.4186
     38 F         138.1533  136.8287  166.0110 F       1  UNL1       -0.1659
     39 F         139.4978  137.5446  164.5347 F       1  UNL1       -0.1659
     40 F         137.6906  138.8254  166.5578 F       1  UNL1       -0.1659
@<TRIPOS>BOND
     1    19    20    1
     2    20    18    1
     3    18    16    1
     4    16    17    2
     5    10    16    1
     6    10    11    1
     7    11    12    1
     8    12    13    1
     9    13     6    1
    10     6     7    1
    11     7     8    1
    12     8     2    1
    13     2     3   am
    14     3     4    2
    15     3     1    1
    16     1    21    1
    17    21    23    1
    18    23    24   ar
    19    24    25   ar
    20    25    26   am
    21    26    27   am
    22    26    28    2
    23    25    29   ar
    24    29    30   ar
    25    30    31   ar
    26    31    32   ar
    27    32    37    1
    28    37    38    1
    29    37    39    1
    30    37    40    1
    31    32    33   ar
    32    33    34   ar
    33     8     9    1
    34    13    14    1
    35    14    15    1
    36    15    10    1
    37     9     6    1
    38    34    23   ar
    39    34    29   ar
    40     2     5    1
    41    21    22    1
    42    27    35    1
    43    27    36    1
