@<TRIPOS>MOLECULE
*****
 35 39 0 0 0
SMALL
GASTEIGER

@<TRIPOS>ATOM
      1 N         141.4453  142.7414  163.5310 N.ar    1  UNL1       -0.2299
      2 C         142.1068  142.2806  164.7959 C.ar    1  UNL1        0.2753
      3 O         143.5502  141.8725  164.7817 O.2     1  UNL1       -0.2656
      4 C         141.3250  142.2279  166.0749 C.ar    1  UNL1        0.0604
      5 C         139.8816  142.6360  166.0891 C.ar    1  UNL1        0.0454
      6 C         139.2201  143.0968  164.8242 C.ar    1  UNL1        0.1850
      7 N         137.8228  143.5576  164.5327 N.ar    1  UNL1       -0.1270
      8 N         137.7410  143.8951  163.0735 N.ar    1  UNL1       -0.1269
      9 C         139.0878  143.6429  162.4631 C.ar    1  UNL1        0.1878
     10 N         140.0020  143.1495  163.5451 N.ar    1  UNL1       -0.2084
     11 C         141.9866  141.7670  167.3399 C.ar    1  UNL1        0.0031
     12 C         142.6965  142.7546  168.2178 C.ar    1  UNL1        0.0045
     13 C         143.3580  142.2938  169.4827 C.ar    1  UNL1        0.0556
     14 C         143.3096  140.8454  169.8697 C.ar    1  UNL1        0.0338
     15 C         142.5998  139.8578  168.9918 C.ar    1  UNL1        0.1363
     16 F         142.5514  138.4093  169.3787 F       1  UNL1       -0.2045
     17 C         141.9383  140.3186  167.7269 C.ar    1  UNL1        0.0058
     18 C         141.2283  139.3310  166.8489 C.3     1  UNL1        0.0334
     19 C         144.0679  143.2814  170.3607 C.2     1  UNL1        0.2459
     20 O         143.2885  144.1155  171.3338 O.2     1  UNL1       -0.2701
     21 N         145.5569  143.4349  170.2654 N.am    1  UNL1       -0.3025
     22 H         146.0684  142.8874  169.6267 H       1  UNL1        0.1497
     23 C         146.2667  144.4225  171.1434 C.3     1  UNL1        0.0720
     24 C         147.4645  144.8094  171.9593 C.3     1  UNL1        0.0213
     25 C         146.2983  145.7463  171.8481 C.3     1  UNL1        0.0213
     26 C         139.4558  143.8481  161.0235 C.ar    1  UNL1        0.0755
     27 C         140.1122  145.1259  160.5920 C.ar    1  UNL1        0.1439
     28 F         140.4007  146.1986  161.6001 F       1  UNL1       -0.2040
     29 C         140.4802  145.3312  159.1523 C.ar    1  UNL1        0.0298
     30 C         140.1918  144.2586  158.1443 C.ar    1  UNL1        0.0032
     31 C         139.5353  142.9807  158.5758 C.ar    1  UNL1        0.0116
     32 C         139.1673  142.7755  160.0154 C.ar    1  UNL1        0.0628
     33 CL        138.5108  141.4976  160.4469 Cl      1  UNL1       -0.0821
     34 C         142.3844  141.5576  161.4175 C.3     1  UNL1        0.0285
     35 C         142.2271  142.7941  162.2519 C.3     1  UNL1        0.1293
@<TRIPOS>BOND
     1    34    35    1
     2    35     1    1
     3     1     2   ar
     4     2     3    2
     5     2     4   ar
     6     4    11    1
     7    11    12   ar
     8    12    13   ar
     9    13    19    1
    10    19    20    2
    11    19    21   am
    12    21    23    1
    13    23    24    1
    14    24    25    1
    15    13    14   ar
    16    14    15   ar
    17    15    16    1
    18    15    17   ar
    19    17    18    1
    20     4     5   ar
    21     5     6   ar
    22     6     7   ar
    23     7     8   ar
    24     8     9   ar
    25     9    26    1
    26    26    27   ar
    27    27    28    1
    28    27    29   ar
    29    29    30   ar
    30    30    31   ar
    31    31    32   ar
    32    32    33    1
    33     9    10   ar
    34    10     1   ar
    35    17    11   ar
    36    10     6   ar
    37    25    23    1
    38    32    26   ar
    39    21    22    1
@<TRIPOS>MOLECULE
*****
 35 39 0 0 0
SMALL
GASTEIGER

@<TRIPOS>ATOM
      1 N         141.4896  141.2991  164.9433 N.ar    1  UNL1       -0.2299
      2 C         141.5532  141.1530  163.4518 C.ar    1  UNL1        0.2753
      3 O         140.8477  142.1409  162.5707 O.2     1  UNL1       -0.2656
      4 C         142.3223  140.0191  162.8415 C.ar    1  UNL1        0.0604
      5 C         143.0279  139.0312  163.7226 C.ar    1  UNL1        0.0454
      6 C         142.9642  139.1773  165.2141 C.ar    1  UNL1        0.1850
      7 N         143.5544  138.3647  166.3283 N.ar    1  UNL1       -0.1270
      8 N         143.1499  138.9964  167.6272 N.ar    1  UNL1       -0.1269
      9 C         142.3098  140.1995  167.3159 C.ar    1  UNL1        0.1878
     10 N         142.1951  140.3113  165.8245 N.ar    1  UNL1       -0.2084
     11 C         142.3860  139.8729  161.3499 C.ar    1  UNL1        0.0031
     12 C         143.4133  140.6335  160.5650 C.ar    1  UNL1        0.0045
     13 C         143.4770  140.4874  159.0735 C.ar    1  UNL1        0.0556
     14 C         142.5133  139.5807  158.3669 C.ar    1  UNL1        0.0338
     15 C         141.4860  138.8201  159.1519 C.ar    1  UNL1        0.1363
     16 F         140.5222  137.9134  158.4453 F       1  UNL1       -0.2045
     17 C         141.4223  138.9662  160.6434 C.ar    1  UNL1        0.0058
     18 C         140.3950  138.2057  161.4284 C.3     1  UNL1        0.0334
     19 C         144.5043  141.2480  158.2885 C.2     1  UNL1        0.2459
     20 O         144.8245  142.6681  158.6505 O.2     1  UNL1       -0.2701
     21 N         145.2113  140.5886  157.1417 N.am    1  UNL1       -0.3025
     22 H         145.0012  139.6566  156.9042 H       1  UNL1        0.1497
     23 C         146.2387  141.3493  156.3568 C.3     1  UNL1        0.0720
     24 C         146.9450  141.6207  155.0617 C.3     1  UNL1        0.0213
     25 C         147.3117  142.3954  156.2927 C.3     1  UNL1        0.0213
     26 C         141.6929  141.1277  168.3197 C.ar    1  UNL1        0.0755
     27 C         142.4856  142.2797  168.8624 C.ar    1  UNL1        0.1439
     28 F         143.8953  142.5034  168.4012 F       1  UNL1       -0.2040
     29 C         141.8687  143.2080  169.8662 C.ar    1  UNL1        0.0298
     30 C         140.4590  142.9843  170.3274 C.ar    1  UNL1        0.0032
     31 C         139.6663  141.8323  169.7847 C.ar    1  UNL1        0.0116
     32 C         140.2832  140.9040  168.7809 C.ar    1  UNL1        0.0628
     33 CL        139.4904  139.7520  168.2383 Cl      1  UNL1       -0.0821
     34 C         139.2211  142.4325  165.5085 C.3     1  UNL1        0.0285
     35 C         140.7204  142.4331  165.5537 C.3     1  UNL1        0.1293
@<TRIPOS>BOND
     1    34    35    1
     2    35     1    1
     3     1     2   ar
     4     2     3    2
     5     2     4   ar
     6     4    11    1
     7    11    12   ar
     8    12    13   ar
     9    13    19    1
    10    19    20    2
    11    19    21   am
    12    21    23    1
    13    23    24    1
    14    24    25    1
    15    13    14   ar
    16    14    15   ar
    17    15    16    1
    18    15    17   ar
    19    17    18    1
    20     4     5   ar
    21     5     6   ar
    22     6     7   ar
    23     7     8   ar
    24     8     9   ar
    25     9    26    1
    26    26    27   ar
    27    27    28    1
    28    27    29   ar
    29    29    30   ar
    30    30    31   ar
    31    31    32   ar
    32    32    33    1
    33     9    10   ar
    34    10     1   ar
    35    17    11   ar
    36    10     6   ar
    37    25    23    1
    38    32    26   ar
    39    21    22    1
@<TRIPOS>MOLECULE
*****
 35 39 0 0 0
SMALL
GASTEIGER

@<TRIPOS>ATOM
      1 N         141.8178  139.0450  162.9531 N.ar    1  UNL1       -0.2299
      2 C         141.5684  138.4829  161.5850 C.ar    1  UNL1        0.2753
      3 O         140.3216  137.6940  161.3141 O.2     1  UNL1       -0.2656
      4 C         142.5657  138.7095  160.4878 C.ar    1  UNL1        0.0604
      5 C         143.8125  139.4983  160.7586 C.ar    1  UNL1        0.0454
      6 C         144.0619  140.0605  162.1267 C.ar    1  UNL1        0.1850
      7 N         145.1916  140.8724  162.6875 N.ar    1  UNL1       -0.1270
      8 N         144.8925  141.1475  164.1314 N.ar    1  UNL1       -0.1269
      9 C         143.5779  140.5057  164.4629 C.ar    1  UNL1        0.1878
     10 N         143.0645  139.8339  163.2239 N.ar    1  UNL1       -0.2084
     11 C         142.3163  138.1472  159.1196 C.ar    1  UNL1        0.0031
     12 C         142.9770  136.8666  158.7031 C.ar    1  UNL1        0.0045
     13 C         142.7276  136.3044  157.3350 C.ar    1  UNL1        0.0556
     14 C         141.8175  137.0228  156.3834 C.ar    1  UNL1        0.0338
     15 C         141.1567  138.3034  156.7999 C.ar    1  UNL1        0.1363
     16 F         140.2465  139.0219  155.8483 F       1  UNL1       -0.2045
     17 C         141.4061  138.8656  158.1680 C.ar    1  UNL1        0.0058
     18 C         140.7454  140.1463  158.5846 C.3     1  UNL1        0.0334
     19 C         143.3883  135.0238  156.9185 C.2     1  UNL1        0.2459
     20 O         143.7613  134.8050  155.4821 O.2     1  UNL1       -0.2701
     21 N         143.6761  133.9621  157.9382 N.am    1  UNL1       -0.3025
     22 H         143.4313  134.1057  158.8809 H       1  UNL1        0.1497
     23 C         144.3368  132.6815  157.5216 C.3     1  UNL1        0.0720
     24 C         144.9175  131.8084  156.4490 C.3     1  UNL1        0.0213
     25 C         144.9006  131.3366  157.8728 C.3     1  UNL1        0.0213
     26 C         142.8963  140.5312  165.7989 C.ar    1  UNL1        0.0755
     27 C         142.0552  141.7102  166.1893 C.ar    1  UNL1        0.1439
     28 F         141.8956  142.8636  165.2437 F       1  UNL1       -0.2040
     29 C         141.3736  141.7358  167.5253 C.ar    1  UNL1        0.0298
     30 C         141.5332  140.5824  168.4708 C.ar    1  UNL1        0.0032
     31 C         142.3744  139.4033  168.0804 C.ar    1  UNL1        0.0116
     32 C         143.0559  139.3777  166.7445 C.ar    1  UNL1        0.0628
     33 CL        143.8971  138.1988  166.3541 Cl      1  UNL1       -0.0821
     34 C         140.7200  137.4733  164.7065 C.3     1  UNL1        0.0285
     35 C         140.8204  138.8184  164.0503 C.3     1  UNL1        0.1293
@<TRIPOS>BOND
     1    34    35    1
     2    35     1    1
     3     1     2   ar
     4     2     3    2
     5     2     4   ar
     6     4    11    1
     7    11    12   ar
     8    12    13   ar
     9    13    19    1
    10    19    20    2
    11    19    21   am
    12    21    23    1
    13    23    24    1
    14    24    25    1
    15    13    14   ar
    16    14    15   ar
    17    15    16    1
    18    15    17   ar
    19    17    18    1
    20     4     5   ar
    21     5     6   ar
    22     6     7   ar
    23     7     8   ar
    24     8     9   ar
    25     9    26    1
    26    26    27   ar
    27    27    28    1
    28    27    29   ar
    29    29    30   ar
    30    30    31   ar
    31    31    32   ar
    32    32    33    1
    33     9    10   ar
    34    10     1   ar
    35    17    11   ar
    36    10     6   ar
    37    25    23    1
    38    32    26   ar
    39    21    22    1
@<TRIPOS>MOLECULE
*****
 35 39 0 0 0
SMALL
GASTEIGER

@<TRIPOS>ATOM
      1 N         139.5616  142.2295  163.6246 N.ar    1  UNL1       -0.2299
      2 C         139.1800  142.7034  162.2535 C.ar    1  UNL1        0.2753
      3 O         138.0772  143.7065  162.0867 O.2     1  UNL1       -0.2656
      4 C         139.9011  142.1743  161.0494 C.ar    1  UNL1        0.0604
      5 C         141.0038  141.1712  161.2163 C.ar    1  UNL1        0.0454
      6 C         141.3854  140.6973  162.5873 C.ar    1  UNL1        0.1850
      7 N         142.4233  139.7228  163.0597 N.ar    1  UNL1       -0.1270
      8 N         142.3436  139.6497  164.5558 N.ar    1  UNL1       -0.1269
      9 C         141.2565  140.5790  165.0081 C.ar    1  UNL1        0.1878
     10 N         140.6643  141.2265  163.7915 N.ar    1  UNL1       -0.2084
     11 C         139.5194  142.6482  159.6783 C.ar    1  UNL1        0.0031
     12 C         138.4394  141.9415  158.9141 C.ar    1  UNL1        0.0045
     13 C         138.0577  142.4154  157.5431 C.ar    1  UNL1        0.0556
     14 C         138.7562  143.5960  156.9362 C.ar    1  UNL1        0.0338
     15 C         139.8363  144.3027  157.7004 C.ar    1  UNL1        0.1363
     16 F         140.5348  145.4834  157.0936 F       1  UNL1       -0.2045
     17 C         140.2179  143.8288  159.0715 C.ar    1  UNL1        0.0058
     18 C         141.2980  144.5355  159.8357 C.3     1  UNL1        0.0334
     19 C         136.9777  141.7086  156.7789 C.2     1  UNL1        0.2459
     20 O         136.7359  140.2451  157.0021 O.2     1  UNL1       -0.2701
     21 N         136.1394  142.4653  155.7916 N.am    1  UNL1       -0.3025
     22 H         136.2981  143.4259  155.6452 H       1  UNL1        0.1497
     23 C         135.0593  141.7585  155.0275 C.3     1  UNL1        0.0720
     24 C         133.7749  140.9840  155.0093 C.3     1  UNL1        0.0213
     25 C         134.4731  141.3089  153.7221 C.3     1  UNL1        0.0213
     26 C         140.8355  140.8187  166.4277 C.ar    1  UNL1        0.0755
     27 C         141.5104  141.8836  167.2404 C.ar    1  UNL1        0.1439
     28 F         142.6063  142.7088  166.6335 F       1  UNL1       -0.2040
     29 C         141.0895  142.1234  168.6601 C.ar    1  UNL1        0.0298
     30 C         139.9937  141.2983  169.2669 C.ar    1  UNL1        0.0032
     31 C         139.3188  140.2334  168.4541 C.ar    1  UNL1        0.0116
     32 C         139.7397  139.9936  167.0346 C.ar    1  UNL1        0.0628
     33 CL        139.0648  138.9287  166.2219 Cl      1  UNL1       -0.0821
     34 C         139.2218  144.0894  165.4066 C.3     1  UNL1        0.0285
     35 C         138.8405  142.7587  164.8287 C.3     1  UNL1        0.1293
@<TRIPOS>BOND
     1    34    35    1
     2    35     1    1
     3     1     2   ar
     4     2     3    2
     5     2     4   ar
     6     4    11    1
     7    11    12   ar
     8    12    13   ar
     9    13    19    1
    10    19    20    2
    11    19    21   am
    12    21    23    1
    13    23    24    1
    14    24    25    1
    15    13    14   ar
    16    14    15   ar
    17    15    16    1
    18    15    17   ar
    19    17    18    1
    20     4     5   ar
    21     5     6   ar
    22     6     7   ar
    23     7     8   ar
    24     8     9   ar
    25     9    26    1
    26    26    27   ar
    27    27    28    1
    28    27    29   ar
    29    29    30   ar
    30    30    31   ar
    31    31    32   ar
    32    32    33    1
    33     9    10   ar
    34    10     1   ar
    35    17    11   ar
    36    10     6   ar
    37    25    23    1
    38    32    26   ar
    39    21    22    1
@<TRIPOS>MOLECULE
*****
 35 39 0 0 0
SMALL
GASTEIGER

@<TRIPOS>ATOM
      1 N         141.4442  139.0178  161.2540 N.ar    1  UNL1       -0.2299
      2 C         142.2910  138.5207  160.1201 C.ar    1  UNL1        0.2753
      3 O         143.7400  138.2064  160.3479 O.2     1  UNL1       -0.2656
      4 C         141.6890  138.3378  158.7586 C.ar    1  UNL1        0.0604
      5 C         140.2400  138.6521  158.5308 C.ar    1  UNL1        0.0454
      6 C         139.3932  139.1492  159.6647 C.ar    1  UNL1        0.1850
      7 N         137.9466  139.5383  159.7415 N.ar    1  UNL1       -0.1270
      8 N         137.6546  139.9615  161.1506 N.ar    1  UNL1       -0.1269
      9 C         138.9208  139.8341  161.9447 C.ar    1  UNL1        0.1878
     10 N         139.9953  139.3321  161.0263 N.ar    1  UNL1       -0.2084
     11 C         142.5358  137.8407  157.6246 C.ar    1  UNL1        0.0031
     12 C         142.6880  136.3666  157.3924 C.ar    1  UNL1        0.0045
     13 C         143.5348  135.8695  156.2584 C.ar    1  UNL1        0.0556
     14 C         144.2294  136.8464  155.3567 C.ar    1  UNL1        0.0338
     15 C         144.0772  138.3205  155.5890 C.ar    1  UNL1        0.1363
     16 F         144.7718  139.2976  154.6872 F       1  UNL1       -0.2045
     17 C         143.2304  138.8176  156.7229 C.ar    1  UNL1        0.0058
     18 C         143.0782  140.2918  156.9551 C.3     1  UNL1        0.0334
     19 C         143.6870  134.3954  156.0262 C.2     1  UNL1        0.2459
     20 O         143.0661  133.7584  154.8183 O.2     1  UNL1       -0.2701
     21 N         144.4600  133.5583  157.0018 N.am    1  UNL1       -0.3025
     22 H         144.8674  133.9764  157.7946 H       1  UNL1        0.1497
     23 C         144.6121  132.0842  156.7695 C.3     1  UNL1        0.0720
     24 C         144.5712  130.6766  157.2863 C.3     1  UNL1        0.0213
     25 C         144.9165  130.9387  155.8503 C.3     1  UNL1        0.0213
     26 C         139.0838  140.1528  163.4013 C.ar    1  UNL1        0.0755
     27 C         138.8774  139.0817  164.4310 C.ar    1  UNL1        0.1439
     28 F         138.5080  137.6920  164.0040 F       1  UNL1       -0.2040
     29 C         139.0404  139.4004  165.8878 C.ar    1  UNL1        0.0298
     30 C         139.4098  140.7900  166.3147 C.ar    1  UNL1        0.0032
     31 C         139.6162  141.8611  165.2850 C.ar    1  UNL1        0.0116
     32 C         139.4532  141.5425  163.8283 C.ar    1  UNL1        0.0628
     33 CL        139.6597  142.6135  162.7987 Cl      1  UNL1       -0.0821
     34 C         142.2054  138.0221  163.5298 C.3     1  UNL1        0.0285
     35 C         142.0464  139.2006  162.6157 C.3     1  UNL1        0.1293
@<TRIPOS>BOND
     1    34    35    1
     2    35     1    1
     3     1     2   ar
     4     2     3    2
     5     2     4   ar
     6     4    11    1
     7    11    12   ar
     8    12    13   ar
     9    13    19    1
    10    19    20    2
    11    19    21   am
    12    21    23    1
    13    23    24    1
    14    24    25    1
    15    13    14   ar
    16    14    15   ar
    17    15    16    1
    18    15    17   ar
    19    17    18    1
    20     4     5   ar
    21     5     6   ar
    22     6     7   ar
    23     7     8   ar
    24     8     9   ar
    25     9    26    1
    26    26    27   ar
    27    27    28    1
    28    27    29   ar
    29    29    30   ar
    30    30    31   ar
    31    31    32   ar
    32    32    33    1
    33     9    10   ar
    34    10     1   ar
    35    17    11   ar
    36    10     6   ar
    37    25    23    1
    38    32    26   ar
    39    21    22    1
@<TRIPOS>MOLECULE
*****
 35 39 0 0 0
SMALL
GASTEIGER

@<TRIPOS>ATOM
      1 N         142.7209  140.2275  164.5973 N.ar    1  UNL1       -0.2299
      2 C         143.0333  139.8939  163.1686 C.ar    1  UNL1        0.2753
      3 O         144.0812  138.8690  162.8496 O.2     1  UNL1       -0.2656
      4 C         142.2979  140.5851  162.0590 C.ar    1  UNL1        0.0604
      5 C         141.2500  141.6099  162.3779 C.ar    1  UNL1        0.0454
      6 C         140.9376  141.9436  163.8066 C.ar    1  UNL1        0.1850
      7 N         139.9635  142.9031  164.4233 N.ar    1  UNL1       -0.1270
      8 N         140.0969  142.8049  165.9141 N.ar    1  UNL1       -0.1269
      9 C         141.1535  141.7847  166.2188 C.ar    1  UNL1        0.1878
     10 N         141.6731  141.2523  164.9163 N.ar    1  UNL1       -0.2084
     11 C         142.6103  140.2514  160.6302 C.ar    1  UNL1        0.0031
     12 C         143.6699  141.0179  159.8955 C.ar    1  UNL1        0.0045
     13 C         143.9823  140.6843  158.4668 C.ar    1  UNL1        0.0556
     14 C         143.2351  139.5842  157.7729 C.ar    1  UNL1        0.0338
     15 C         142.1756  138.8177  158.5077 C.ar    1  UNL1        0.1363
     16 F         141.4283  137.7175  157.8138 F       1  UNL1       -0.2045
     17 C         141.8632  139.1513  159.9363 C.ar    1  UNL1        0.0058
     18 C         140.8036  138.3848  160.6712 C.3     1  UNL1        0.0334
     19 C         145.0418  141.4508  157.7321 C.2     1  UNL1        0.2459
     20 O         145.3821  142.8502  158.1516 O.2     1  UNL1       -0.2701
     21 N         145.7610  140.8179  156.5779 N.am    1  UNL1       -0.3025
     22 H         145.5377  139.8995  156.3025 H       1  UNL1        0.1497
     23 C         146.8206  141.5845  155.8431 C.3     1  UNL1        0.0720
     24 C         147.2419  142.7901  155.0564 C.3     1  UNL1        0.0213
     25 C         148.2345  141.7065  155.3574 C.3     1  UNL1        0.0213
     26 C         141.6102  141.3697  167.5860 C.ar    1  UNL1        0.0755
     27 C         142.8865  141.9205  168.1496 C.ar    1  UNL1        0.1439
     28 F         143.7061  142.8862  167.3460 F       1  UNL1       -0.2040
     29 C         143.3434  141.5055  169.5168 C.ar    1  UNL1        0.0298
     30 C         142.5238  140.5398  170.3203 C.ar    1  UNL1        0.0032
     31 C         141.2474  139.9891  169.7567 C.ar    1  UNL1        0.0116
     32 C         140.7907  140.4040  168.3896 C.ar    1  UNL1        0.0628
     33 CL        139.5143  139.8533  167.8260 Cl      1  UNL1       -0.0821
     34 C         143.0015  138.1885  166.1827 C.3     1  UNL1        0.0285
     35 C         143.4564  139.5363  165.7069 C.3     1  UNL1        0.1293
@<TRIPOS>BOND
     1    34    35    1
     2    35     1    1
     3     1     2   ar
     4     2     3    2
     5     2     4   ar
     6     4    11    1
     7    11    12   ar
     8    12    13   ar
     9    13    19    1
    10    19    20    2
    11    19    21   am
    12    21    23    1
    13    23    24    1
    14    24    25    1
    15    13    14   ar
    16    14    15   ar
    17    15    16    1
    18    15    17   ar
    19    17    18    1
    20     4     5   ar
    21     5     6   ar
    22     6     7   ar
    23     7     8   ar
    24     8     9   ar
    25     9    26    1
    26    26    27   ar
    27    27    28    1
    28    27    29   ar
    29    29    30   ar
    30    30    31   ar
    31    31    32   ar
    32    32    33    1
    33     9    10   ar
    34    10     1   ar
    35    17    11   ar
    36    10     6   ar
    37    25    23    1
    38    32    26   ar
    39    21    22    1
@<TRIPOS>MOLECULE
*****
 35 39 0 0 0
SMALL
GASTEIGER

@<TRIPOS>ATOM
      1 N         141.8992  138.9535  162.9757 N.ar    1  UNL1       -0.2299
      2 C         141.6247  138.4387  161.5938 C.ar    1  UNL1        0.2753
      3 O         140.3882  137.6329  161.3255 O.2     1  UNL1       -0.2656
      4 C         142.5866  138.7296  160.4803 C.ar    1  UNL1        0.0604
      5 C         143.8231  139.5353  160.7485 C.ar    1  UNL1        0.0454
      6 C         144.0976  140.0501  162.1304 C.ar    1  UNL1        0.1850
      7 N         145.2245  140.8651  162.6924 N.ar    1  UNL1       -0.1270
      8 N         144.9591  141.0779  164.1533 N.ar    1  UNL1       -0.1269
      9 C         143.6681  140.3944  164.4942 C.ar    1  UNL1        0.1878
     10 N         143.1356  139.7592  163.2440 N.ar    1  UNL1       -0.2084
     11 C         142.3120  138.2147  159.0983 C.ar    1  UNL1        0.0031
     12 C         142.9699  136.9531  158.6235 C.ar    1  UNL1        0.0045
     13 C         142.6954  136.4383  157.2417 C.ar    1  UNL1        0.0556
     14 C         141.7630  137.1851  156.3346 C.ar    1  UNL1        0.0338
     15 C         141.1051  138.4467  156.8093 C.ar    1  UNL1        0.1363
     16 F         140.1727  139.1937  155.9022 F       1  UNL1       -0.2045
     17 C         141.3796  138.9616  158.1912 C.ar    1  UNL1        0.0058
     18 C         140.7218  140.2232  158.6661 C.3     1  UNL1        0.0334
     19 C         143.3534  135.1766  156.7669 C.2     1  UNL1        0.2459
     20 O         143.7280  135.0239  155.3224 O.2     1  UNL1       -0.2701
     21 N         143.6365  134.0677  157.7365 N.am    1  UNL1       -0.3025
     22 H         143.3906  134.1679  158.6845 H       1  UNL1        0.1497
     23 C         144.2945  132.8061  157.2616 C.3     1  UNL1        0.0720
     24 C         144.5042  131.7723  156.1951 C.3     1  UNL1        0.0213
     25 C         145.2243  131.6546  157.5058 C.3     1  UNL1        0.0213
     26 C         143.0228  140.3534  165.8477 C.ar    1  UNL1        0.0755
     27 C         143.2441  139.1746  166.7486 C.ar    1  UNL1        0.1439
     28 F         144.1106  138.0369  166.2959 F       1  UNL1       -0.2040
     29 C         142.5988  139.1335  168.1021 C.ar    1  UNL1        0.0298
     30 C         141.7324  140.2711  168.5547 C.ar    1  UNL1        0.0032
     31 C         141.5111  141.4499  167.6538 C.ar    1  UNL1        0.0116
     32 C         142.1563  141.4910  166.3003 C.ar    1  UNL1        0.0628
     33 CL        141.9350  142.6698  165.3994 Cl      1  UNL1       -0.0821
     34 C         140.9063  137.3006  164.7170 C.3     1  UNL1        0.0285
     35 C         140.9372  138.6626  164.0892 C.3     1  UNL1        0.1293
@<TRIPOS>BOND
     1    34    35    1
     2    35     1    1
     3     1     2   ar
     4     2     3    2
     5     2     4   ar
     6     4    11    1
     7    11    12   ar
     8    12    13   ar
     9    13    19    1
    10    19    20    2
    11    19    21   am
    12    21    23    1
    13    23    24    1
    14    24    25    1
    15    13    14   ar
    16    14    15   ar
    17    15    16    1
    18    15    17   ar
    19    17    18    1
    20     4     5   ar
    21     5     6   ar
    22     6     7   ar
    23     7     8   ar
    24     8     9   ar
    25     9    26    1
    26    26    27   ar
    27    27    28    1
    28    27    29   ar
    29    29    30   ar
    30    30    31   ar
    31    31    32   ar
    32    32    33    1
    33     9    10   ar
    34    10     1   ar
    35    17    11   ar
    36    10     6   ar
    37    25    23    1
    38    32    26   ar
    39    21    22    1
@<TRIPOS>MOLECULE
*****
 35 39 0 0 0
SMALL
GASTEIGER

@<TRIPOS>ATOM
      1 N         140.4913  139.8473  164.4150 N.ar    1  UNL1       -0.2299
      2 C         140.0108  139.6049  163.0150 C.ar    1  UNL1        0.2753
      3 O         138.8572  138.6784  162.7679 O.2     1  UNL1       -0.2656
      4 C         140.6836  140.2889  161.8621 C.ar    1  UNL1        0.0604
      5 C         141.8372  141.2154  162.1092 C.ar    1  UNL1        0.0454
      6 C         142.3178  141.4578  163.5093 C.ar    1  UNL1        0.1850
      7 N         143.4230  142.3110  164.0574 N.ar    1  UNL1       -0.1270
      8 N         143.4331  142.1543  165.5492 N.ar    1  UNL1       -0.1269
      9 C         142.3342  141.2042  165.9230 C.ar    1  UNL1        0.1878
     10 N         141.6448  140.7737  164.6622 N.ar    1  UNL1       -0.2084
     11 C         140.2030  140.0465  160.4619 C.ar    1  UNL1        0.0031
     12 C         140.8619  138.9995  159.6135 C.ar    1  UNL1        0.0045
     13 C         140.3813  138.7571  158.2134 C.ar    1  UNL1        0.0556
     14 C         139.2419  139.5616  157.6617 C.ar    1  UNL1        0.0338
     15 C         138.5830  140.6086  158.5101 C.ar    1  UNL1        0.1363
     16 F         137.4435  141.4132  157.9585 F       1  UNL1       -0.2045
     17 C         139.0636  140.8510  159.9102 C.ar    1  UNL1        0.0058
     18 C         138.4047  141.8980  160.7587 C.3     1  UNL1        0.0334
     19 C         141.0402  137.7101  157.3650 C.2     1  UNL1        0.2459
     20 O         140.2448  136.9776  156.3253 O.2     1  UNL1       -0.2701
     21 N         142.4943  137.3957  157.5563 N.am    1  UNL1       -0.3025
     22 H         143.0163  137.8765  158.2386 H       1  UNL1        0.1497
     23 C         143.1531  136.3487  156.7078 C.3     1  UNL1        0.0720
     24 C         143.6238  134.9372  156.5185 C.3     1  UNL1        0.0213
     25 C         143.8234  135.9470  155.4275 C.3     1  UNL1        0.0213
     26 C         141.9858  140.7622  167.3134 C.ar    1  UNL1        0.0755
     27 C         142.6217  139.5325  167.8909 C.ar    1  UNL1        0.1439
     28 F         143.6060  138.7449  167.0780 F       1  UNL1       -0.2040
     29 C         142.2733  139.0904  169.2814 C.ar    1  UNL1        0.0298
     30 C         141.2891  139.8781  170.0942 C.ar    1  UNL1        0.0032
     31 C         140.6531  141.1078  169.5166 C.ar    1  UNL1        0.0116
     32 C         141.0015  141.5498  168.1263 C.ar    1  UNL1        0.0628
     33 CL        140.3656  142.7795  167.5488 Cl      1  UNL1       -0.0821
     34 C         138.5014  139.6705  166.0760 C.3     1  UNL1        0.0285
     35 C         139.8184  139.1632  165.5680 C.3     1  UNL1        0.1293
@<TRIPOS>BOND
     1    34    35    1
     2    35     1    1
     3     1     2   ar
     4     2     3    2
     5     2     4   ar
     6     4    11    1
     7    11    12   ar
     8    12    13   ar
     9    13    19    1
    10    19    20    2
    11    19    21   am
    12    21    23    1
    13    23    24    1
    14    24    25    1
    15    13    14   ar
    16    14    15   ar
    17    15    16    1
    18    15    17   ar
    19    17    18    1
    20     4     5   ar
    21     5     6   ar
    22     6     7   ar
    23     7     8   ar
    24     8     9   ar
    25     9    26    1
    26    26    27   ar
    27    27    28    1
    28    27    29   ar
    29    29    30   ar
    30    30    31   ar
    31    31    32   ar
    32    32    33    1
    33     9    10   ar
    34    10     1   ar
    35    17    11   ar
    36    10     6   ar
    37    25    23    1
    38    32    26   ar
    39    21    22    1
@<TRIPOS>MOLECULE
*****
 35 39 0 0 0
SMALL
GASTEIGER

@<TRIPOS>ATOM
      1 N         140.7241  138.8028  161.0804 N.ar    1  UNL1       -0.2299
      2 C         141.0665  138.4976  159.6523 C.ar    1  UNL1        0.2753
      3 O         139.9793  138.4114  158.6224 O.2     1  UNL1       -0.2656
      4 C         142.4959  138.2786  159.2540 C.ar    1  UNL1        0.0604
      5 C         143.5831  138.3647  160.2840 C.ar    1  UNL1        0.0454
      6 C         143.2407  138.6699  161.7121 C.ar    1  UNL1        0.1850
      7 N         144.0915  138.8171  162.9387 N.ar    1  UNL1       -0.1270
      8 N         143.1877  139.1271  164.0951 N.ar    1  UNL1       -0.1269
      9 C         141.7785  139.1715  163.5831 C.ar    1  UNL1        0.1878
     10 N         141.8113  138.8889  162.1103 N.ar    1  UNL1       -0.2084
     11 C         142.8383  137.9733  157.8258 C.ar    1  UNL1        0.0031
     12 C         142.9417  136.5489  157.3673 C.ar    1  UNL1        0.0045
     13 C         143.2841  136.2437  155.9391 C.ar    1  UNL1        0.0556
     14 C         143.5230  137.3629  154.9695 C.ar    1  UNL1        0.0338
     15 C         143.4196  138.7874  155.4280 C.ar    1  UNL1        0.1363
     16 F         143.6586  139.9067  154.4584 F       1  UNL1       -0.2045
     17 C         143.0772  139.0926  156.8562 C.ar    1  UNL1        0.0058
     18 C         142.9738  140.5170  157.3148 C.3     1  UNL1        0.0334
     19 C         143.3875  134.8192  155.4806 C.2     1  UNL1        0.2459
     20 O         142.6829  134.3806  154.2311 O.2     1  UNL1       -0.2701
     21 N         144.1954  133.8335  156.2716 N.am    1  UNL1       -0.3025
     22 H         144.6578  134.1214  157.0917 H       1  UNL1        0.1497
     23 C         144.2987  132.4090  155.8130 C.3     1  UNL1        0.0720
     24 C         144.8968  131.0402  155.9502 C.3     1  UNL1        0.0213
     25 C         143.8796  131.3106  154.8814 C.3     1  UNL1        0.0213
     26 C         140.5519  139.4497  164.4004 C.ar    1  UNL1        0.0755
     27 C         139.8607  138.3300  165.1206 C.ar    1  UNL1        0.1439
     28 F         140.3962  136.9322  165.0235 F       1  UNL1       -0.2040
     29 C         138.6340  138.6081  165.9380 C.ar    1  UNL1        0.0298
     30 C         138.0986  140.0058  166.0351 C.ar    1  UNL1        0.0032
     31 C         138.7898  141.1255  165.3149 C.ar    1  UNL1        0.0116
     32 C         140.0164  140.8475  164.4976 C.ar    1  UNL1        0.0628
     33 CL        140.7075  141.9671  163.7774 Cl      1  UNL1       -0.0821
     34 C         138.4345  137.8533  161.8590 C.3     1  UNL1        0.0285
     35 C         139.2946  139.0218  161.4786 C.3     1  UNL1        0.1293
@<TRIPOS>BOND
     1    34    35    1
     2    35     1    1
     3     1     2   ar
     4     2     3    2
     5     2     4   ar
     6     4    11    1
     7    11    12   ar
     8    12    13   ar
     9    13    19    1
    10    19    20    2
    11    19    21   am
    12    21    23    1
    13    23    24    1
    14    24    25    1
    15    13    14   ar
    16    14    15   ar
    17    15    16    1
    18    15    17   ar
    19    17    18    1
    20     4     5   ar
    21     5     6   ar
    22     6     7   ar
    23     7     8   ar
    24     8     9   ar
    25     9    26    1
    26    26    27   ar
    27    27    28    1
    28    27    29   ar
    29    29    30   ar
    30    30    31   ar
    31    31    32   ar
    32    32    33    1
    33     9    10   ar
    34    10     1   ar
    35    17    11   ar
    36    10     6   ar
    37    25    23    1
    38    32    26   ar
    39    21    22    1
