@<TRIPOS>MOLECULE
*****
 29 30 0 0 0
SMALL
GASTEIGER

@<TRIPOS>ATOM
      1 S         141.2158  142.1537  164.9822 S.O2    1  UNL1        0.0141
      2 O         140.0318  143.0685  165.0883 O.2     1  UNL1       -0.1683
      3 O         142.3998  141.2388  164.8760 O.2     1  UNL1       -0.1683
      4 C         139.4662  141.4184  163.2079 C.2     1  UNL1        0.0257
      5 C         140.8579  141.8560  163.5562 C.2     1  UNL1        0.1232
      6 C         138.3926  140.5254  158.9301 C.ar    1  UNL1        0.1448
      7 C         138.3041  141.9304  159.4479 C.ar    1  UNL1        0.0740
      8 C         138.6619  142.2280  160.8739 C.ar    1  UNL1        0.1446
      9 C         139.1083  141.1207  161.7820 C.ar    1  UNL1        0.0694
     10 C         139.1968  139.7158  161.2641 C.ar    1  UNL1        0.1446
     11 C         138.8390  139.4181  159.8381 C.ar    1  UNL1        0.0740
     12 C         136.8837  140.9381  156.8557 C.3     1  UNL1        0.2525
     13 O         138.0347  140.2278  157.5041 O.3     1  UNL1       -0.4712
     14 O         138.5734  143.6330  161.3918 O.3     1  UNL1       -0.4712
     15 C         139.7440  144.5601  161.2492 C.3     1  UNL1        0.2525
     16 O         139.6432  138.6084  162.1721 O.3     1  UNL1       -0.4712
     17 C         138.6264  137.7415  162.8538 C.3     1  UNL1        0.2525
     18 C         141.5736  142.4513  166.4081 C.3     1  UNL1        0.1839
     19 C         140.8114  141.8007  167.5242 C.ar    1  UNL1        0.0223
     20 C         140.1984  140.4464  167.3240 C.ar    1  UNL1        0.0995
     21 N         139.4362  139.7958  168.4401 N.ar    1  UNL1       -0.2094
     22 C         139.2869  140.4995  169.7564 C.ar    1  UNL1        0.2383
     23 C         139.8999  141.8538  169.9565 C.ar    1  UNL1        0.0953
     24 N         139.7506  142.5575  171.2728 N.pl3   1  UNL1       -0.3534
     25 C         140.6621  142.5044  168.8404 C.ar    1  UNL1        0.0178
     26 H         139.2503  142.1304  172.0053 H       1  UNL1        0.1425
     27 H         140.1529  143.4463  171.4041 H       1  UNL1        0.1425
     28 O         138.5247  139.8488  170.8724 O.3     1  UNL1       -0.4553
     29 C         137.1532  139.2955  170.6212 C.3     1  UNL1        0.2543
@<TRIPOS>BOND
     1    12    13    1
     2    13     6    1
     3     6     7   ar
     4     7     8   ar
     5     8    14    1
     6    14    15    1
     7     8     9   ar
     8     9     4    1
     9     4     5    2
    10     5     1    1
    11     1     2    2
    12     1     3    2
    13     1    18    1
    14    18    19    1
    15    19    20   ar
    16    20    21   ar
    17    21    22   ar
    18    22    28    1
    19    28    29    1
    20    22    23   ar
    21    23    24    1
    22    23    25   ar
    23     9    10   ar
    24    10    16    1
    25    16    17    1
    26    10    11   ar
    27    11     6   ar
    28    25    19   ar
    29    24    26    1
    30    24    27    1
@<TRIPOS>MOLECULE
*****
 29 30 0 0 0
SMALL
GASTEIGER

@<TRIPOS>ATOM
      1 S         138.4361  141.4393  162.4542 S.O2    1  UNL1        0.0141
      2 O         139.6214  140.5203  162.4305 O.2     1  UNL1       -0.1683
      3 O         137.2509  142.3584  162.4780 O.2     1  UNL1       -0.1683
      4 C         139.5477  140.7022  164.6838 C.2     1  UNL1        0.0257
      5 C         138.5382  141.5324  163.9479 C.2     1  UNL1        0.1232
      6 C         139.8540  140.9814  169.1646 C.ar    1  UNL1        0.1448
      7 C         139.0912  139.8544  168.5338 C.ar    1  UNL1        0.0740
      8 C         138.9891  139.7614  167.0402 C.ar    1  UNL1        0.1446
      9 C         139.6498  140.7953  166.1774 C.ar    1  UNL1        0.0694
     10 C         140.4127  141.9222  166.8082 C.ar    1  UNL1        0.1446
     11 C         140.5148  142.0153  168.3018 C.ar    1  UNL1        0.0740
     12 C         141.0596  141.8732  171.2863 C.3     1  UNL1        0.2525
     13 O         139.9562  141.0745  170.6583 O.3     1  UNL1       -0.4712
     14 O         138.2262  138.6343  166.4094 O.3     1  UNL1       -0.4712
     15 C         137.2503  137.8398  167.2256 C.3     1  UNL1        0.2525
     16 O         141.0734  142.9562  165.9454 O.3     1  UNL1       -0.4712
     17 C         142.4786  142.7453  165.4648 C.3     1  UNL1        0.2525
     18 C         138.3340  141.3463  160.9606 C.3     1  UNL1        0.1839
     19 C         138.9423  142.4131  160.0993 C.ar    1  UNL1        0.0223
     20 C         138.5600  142.5177  158.6526 C.ar    1  UNL1        0.0995
     21 N         139.1683  143.5845  157.7914 N.ar    1  UNL1       -0.2094
     22 C         140.1588  144.5469  158.3768 C.ar    1  UNL1        0.2383
     23 C         140.5411  144.4423  159.8235 C.ar    1  UNL1        0.0953
     24 N         141.5316  145.4046  160.4090 N.pl3   1  UNL1       -0.3534
     25 C         139.9328  143.3754  160.6848 C.ar    1  UNL1        0.0178
     26 H         141.9309  146.1049  159.8437 H       1  UNL1        0.1425
     27 H         141.7825  145.3360  161.3585 H       1  UNL1        0.1425
     28 O         140.7671  145.6137  157.5156 O.3     1  UNL1       -0.4553
     29 C         139.8851  146.5192  156.7080 C.3     1  UNL1        0.2543
@<TRIPOS>BOND
     1    12    13    1
     2    13     6    1
     3     6     7   ar
     4     7     8   ar
     5     8    14    1
     6    14    15    1
     7     8     9   ar
     8     9     4    1
     9     4     5    2
    10     5     1    1
    11     1     2    2
    12     1     3    2
    13     1    18    1
    14    18    19    1
    15    19    20   ar
    16    20    21   ar
    17    21    22   ar
    18    22    28    1
    19    28    29    1
    20    22    23   ar
    21    23    24    1
    22    23    25   ar
    23     9    10   ar
    24    10    16    1
    25    16    17    1
    26    10    11   ar
    27    11     6   ar
    28    25    19   ar
    29    24    26    1
    30    24    27    1
@<TRIPOS>MOLECULE
*****
 29 30 0 0 0
SMALL
GASTEIGER

@<TRIPOS>ATOM
      1 S         143.1767  142.1642  164.6593 S.O2    1  UNL1        0.0141
      2 O         143.7325  143.2042  165.5863 O.2     1  UNL1       -0.1683
      3 O         142.6208  141.1241  163.7323 O.2     1  UNL1       -0.1683
      4 C         141.1936  142.0985  166.3365 C.2     1  UNL1        0.0257
      5 C         142.4714  141.5135  165.8122 C.2     1  UNL1        0.1232
      6 C         139.0778  140.1466  169.7952 C.ar    1  UNL1        0.1448
      7 C         140.0933  141.2214  170.0472 C.ar    1  UNL1        0.0740
      8 C         140.7985  141.8720  168.8943 C.ar    1  UNL1        0.1446
      9 C         140.4883  141.4479  167.4894 C.ar    1  UNL1        0.0694
     10 C         139.4728  140.3731  167.2374 C.ar    1  UNL1        0.1446
     11 C         138.7675  139.7224  168.3903 C.ar    1  UNL1        0.0740
     12 C         136.9319  139.0985  170.8185 C.3     1  UNL1        0.2525
     13 O         138.3725  139.4959  170.9482 O.3     1  UNL1       -0.4712
     14 O         141.8141  142.9469  169.1463 O.3     1  UNL1       -0.4712
     15 C         143.1350  142.6000  169.7666 C.3     1  UNL1        0.2525
     16 O         139.1625  139.9489  165.8324 O.3     1  UNL1       -0.4712
     17 C         139.7140  138.6600  165.2990 C.3     1  UNL1        0.2525
     18 C         143.8820  142.8148  163.5064 C.3     1  UNL1        0.1839
     19 C         143.0916  143.5280  162.4496 C.ar    1  UNL1        0.0223
     20 C         143.3475  143.2406  160.9998 C.ar    1  UNL1        0.0995
     21 N         142.5571  143.9537  159.9430 N.ar    1  UNL1       -0.2094
     22 C         141.5110  144.9543  160.3360 C.ar    1  UNL1        0.2383
     23 C         141.2551  145.2417  161.7858 C.ar    1  UNL1        0.0953
     24 N         140.2090  146.2422  162.1789 N.pl3   1  UNL1       -0.3534
     25 C         142.0455  144.5285  162.8426 C.ar    1  UNL1        0.0178
     26 H         139.6903  146.7103  161.4853 H       1  UNL1        0.1425
     27 H         140.0411  146.4308  163.1305 H       1  UNL1        0.1425
     28 O         140.7206  145.6674  159.2793 O.3     1  UNL1       -0.4553
     29 C         141.0424  145.4537  157.8298 C.3     1  UNL1        0.2543
@<TRIPOS>BOND
     1    12    13    1
     2    13     6    1
     3     6     7   ar
     4     7     8   ar
     5     8    14    1
     6    14    15    1
     7     8     9   ar
     8     9     4    1
     9     4     5    2
    10     5     1    1
    11     1     2    2
    12     1     3    2
    13     1    18    1
    14    18    19    1
    15    19    20   ar
    16    20    21   ar
    17    21    22   ar
    18    22    28    1
    19    28    29    1
    20    22    23   ar
    21    23    24    1
    22    23    25   ar
    23     9    10   ar
    24    10    16    1
    25    16    17    1
    26    10    11   ar
    27    11     6   ar
    28    25    19   ar
    29    24    26    1
    30    24    27    1
@<TRIPOS>MOLECULE
*****
 29 30 0 0 0
SMALL
GASTEIGER

@<TRIPOS>ATOM
      1 S         142.2704  138.5050  158.8798 S.O2    1  UNL1        0.0141
      2 O         140.8154  138.1996  158.6801 O.2     1  UNL1       -0.1683
      3 O         143.7253  138.8104  159.0795 O.2     1  UNL1       -0.1683
      4 C         142.5868  138.0068  161.4099 C.2     1  UNL1        0.0257
      5 C         142.0013  138.8484  160.3150 C.2     1  UNL1        0.1232
      6 C         141.7796  139.0369  165.7155 C.ar    1  UNL1        0.1448
      7 C         140.7488  138.2973  164.9153 C.ar    1  UNL1        0.0740
      8 C         141.0178  137.9539  163.4801 C.ar    1  UNL1        0.1446
      9 C         142.3177  138.3502  162.8451 C.ar    1  UNL1        0.0694
     10 C         143.3485  139.0898  163.6453 C.ar    1  UNL1        0.1446
     11 C         143.0794  139.4332  165.0805 C.ar    1  UNL1        0.0740
     12 C         142.6505  139.6980  168.0722 C.3     1  UNL1        0.2525
     13 O         141.5105  139.3803  167.1506 O.3     1  UNL1       -0.4712
     14 O         139.9869  137.2142  162.6799 O.3     1  UNL1       -0.4712
     15 C         138.7681  137.9319  162.1808 C.3     1  UNL1        0.2525
     16 O         144.6485  139.4861  163.0103 O.3     1  UNL1       -0.4712
     17 C         144.8005  140.8477  162.3995 C.3     1  UNL1        0.2525
     18 C         142.5394  138.1616  157.4446 C.3     1  UNL1        0.1839
     19 C         142.4301  136.7395  156.9805 C.ar    1  UNL1        0.0223
     20 C         141.5239  136.3913  155.8370 C.ar    1  UNL1        0.0995
     21 N         141.4145  134.9691  155.3729 N.ar    1  UNL1       -0.2094
     22 C         142.2113  133.8951  156.0522 C.ar    1  UNL1        0.2383
     23 C         143.1175  134.2432  157.1957 C.ar    1  UNL1        0.0953
     24 N         143.9144  133.1693  157.8751 N.pl3   1  UNL1       -0.3534
     25 C         143.2269  135.6655  157.6599 C.ar    1  UNL1        0.0178
     26 H         143.8426  132.2358  157.5705 H       1  UNL1        0.1425
     27 H         144.5091  133.3978  158.6256 H       1  UNL1        0.1425
     28 O         142.1020  132.4729  155.5881 O.3     1  UNL1       -0.4553
     29 C         143.0668  131.9396  154.5709 C.3     1  UNL1        0.2543
@<TRIPOS>BOND
     1    12    13    1
     2    13     6    1
     3     6     7   ar
     4     7     8   ar
     5     8    14    1
     6    14    15    1
     7     8     9   ar
     8     9     4    1
     9     4     5    2
    10     5     1    1
    11     1     2    2
    12     1     3    2
    13     1    18    1
    14    18    19    1
    15    19    20   ar
    16    20    21   ar
    17    21    22   ar
    18    22    28    1
    19    28    29    1
    20    22    23   ar
    21    23    24    1
    22    23    25   ar
    23     9    10   ar
    24    10    16    1
    25    16    17    1
    26    10    11   ar
    27    11     6   ar
    28    25    19   ar
    29    24    26    1
    30    24    27    1
@<TRIPOS>MOLECULE
*****
 29 30 0 0 0
SMALL
GASTEIGER

@<TRIPOS>ATOM
      1 S         141.3411  142.0192  164.9701 S.O2    1  UNL1        0.0141
      2 O         142.6492  141.4180  165.3913 O.2     1  UNL1       -0.1683
      3 O         140.0330  142.6204  164.5489 O.2     1  UNL1       -0.1683
      4 C         142.7253  140.6168  163.2768 C.2     1  UNL1        0.0257
      5 C         141.4741  141.3670  163.6259 C.2     1  UNL1        0.1232
      6 C         143.1244  138.6602  159.2441 C.ar    1  UNL1        0.1448
      7 C         142.6840  137.8529  160.4292 C.ar    1  UNL1        0.0740
      8 C         142.5509  138.5051  161.7734 C.ar    1  UNL1        0.1446
      9 C         142.8583  139.9646  161.9326 C.ar    1  UNL1        0.0694
     10 C         143.2987  140.7719  160.7475 C.ar    1  UNL1        0.1446
     11 C         143.4317  140.1196  159.4033 C.ar    1  UNL1        0.0740
     12 C         142.1009  137.2529  157.3149 C.3     1  UNL1        0.2525
     13 O         143.2574  138.0079  157.8999 O.3     1  UNL1       -0.4712
     14 O         142.1105  137.6978  162.9584 O.3     1  UNL1       -0.4712
     15 C         140.6536  137.4115  163.1712 C.3     1  UNL1        0.2525
     16 O         143.6061  142.2314  160.9067 O.3     1  UNL1       -0.4712
     17 C         142.5792  143.2592  160.5338 C.3     1  UNL1        0.2525
     18 C         141.2081  142.6714  166.3143 C.3     1  UNL1        0.1839
     19 C         140.5566  141.9324  167.4454 C.ar    1  UNL1        0.0223
     20 C         139.9455  140.5834  167.2066 C.ar    1  UNL1        0.0995
     21 N         139.2940  139.8444  168.3377 N.ar    1  UNL1       -0.2094
     22 C         139.2535  140.4543  169.7075 C.ar    1  UNL1        0.2383
     23 C         139.8645  141.8032  169.9463 C.ar    1  UNL1        0.0953
     24 N         139.8240  142.4131  171.3160 N.pl3   1  UNL1       -0.3534
     25 C         140.5161  142.5423  168.8151 C.ar    1  UNL1        0.0178
     26 H         139.3964  141.9281  172.0584 H       1  UNL1        0.1425
     27 H         140.2251  143.2985  171.4727 H       1  UNL1        0.1425
     28 O         138.6020  139.7152  170.8386 O.3     1  UNL1       -0.4553
     29 C         137.1742  139.2710  170.7205 C.3     1  UNL1        0.2543
@<TRIPOS>BOND
     1    12    13    1
     2    13     6    1
     3     6     7   ar
     4     7     8   ar
     5     8    14    1
     6    14    15    1
     7     8     9   ar
     8     9     4    1
     9     4     5    2
    10     5     1    1
    11     1     2    2
    12     1     3    2
    13     1    18    1
    14    18    19    1
    15    19    20   ar
    16    20    21   ar
    17    21    22   ar
    18    22    28    1
    19    28    29    1
    20    22    23   ar
    21    23    24    1
    22    23    25   ar
    23     9    10   ar
    24    10    16    1
    25    16    17    1
    26    10    11   ar
    27    11     6   ar
    28    25    19   ar
    29    24    26    1
    30    24    27    1
@<TRIPOS>MOLECULE
*****
 29 30 0 0 0
SMALL
GASTEIGER

@<TRIPOS>ATOM
      1 S         140.0462  142.2390  165.4478 S.O2    1  UNL1        0.0141
      2 O         139.1004  141.1456  165.8478 O.2     1  UNL1       -0.1683
      3 O         140.9920  143.3324  165.0479 O.2     1  UNL1       -0.1683
      4 C         138.5438  141.8997  163.3556 C.2     1  UNL1        0.0257
      5 C         139.8930  141.8450  164.0086 C.2     1  UNL1        0.1232
      6 C         138.0842  140.7179  159.0379 C.ar    1  UNL1        0.1448
      7 C         138.3723  142.1451  159.3983 C.ar    1  UNL1        0.0740
      8 C         138.5255  142.5391  160.8375 C.ar    1  UNL1        0.1446
      9 C         138.3906  141.5057  161.9164 C.ar    1  UNL1        0.0694
     10 C         138.1025  140.0785  161.5560 C.ar    1  UNL1        0.1446
     11 C         137.9493  139.6845  160.1168 C.ar    1  UNL1        0.0740
     12 C         139.0895  139.7250  156.8577 C.3     1  UNL1        0.2525
     13 O         137.9310  140.3239  157.5987 O.3     1  UNL1       -0.4712
     14 O         138.8136  143.9664  161.1978 O.3     1  UNL1       -0.4712
     15 C         140.2262  144.4707  161.1930 C.3     1  UNL1        0.2525
     16 O         137.9676  139.0451  162.6349 O.3     1  UNL1       -0.4712
     17 C         138.8721  137.8486  162.6447 C.3     1  UNL1        0.2525
     18 C         140.1994  142.6329  166.8870 C.3     1  UNL1        0.1839
     19 C         140.9468  141.7408  167.8334 C.ar    1  UNL1        0.0223
     20 C         142.4172  141.5118  167.6450 C.ar    1  UNL1        0.0995
     21 N         143.1645  140.6197  168.5914 N.ar    1  UNL1       -0.2094
     22 C         142.4415  139.9565  169.7261 C.ar    1  UNL1        0.2383
     23 C         140.9711  140.1855  169.9144 C.ar    1  UNL1        0.0953
     24 N         140.2480  139.5224  171.0490 N.pl3   1  UNL1       -0.3534
     25 C         140.2237  141.0777  168.9680 C.ar    1  UNL1        0.0178
     26 H         140.7385  138.9369  171.6701 H       1  UNL1        0.1425
     27 H         139.2829  139.6727  171.1726 H       1  UNL1        0.1425
     28 O         143.1888  139.0644  170.6724 O.3     1  UNL1       -0.4553
     29 C         143.2886  137.5935  170.3958 C.3     1  UNL1        0.2543
@<TRIPOS>BOND
     1    12    13    1
     2    13     6    1
     3     6     7   ar
     4     7     8   ar
     5     8    14    1
     6    14    15    1
     7     8     9   ar
     8     9     4    1
     9     4     5    2
    10     5     1    1
    11     1     2    2
    12     1     3    2
    13     1    18    1
    14    18    19    1
    15    19    20   ar
    16    20    21   ar
    17    21    22   ar
    18    22    28    1
    19    28    29    1
    20    22    23   ar
    21    23    24    1
    22    23    25   ar
    23     9    10   ar
    24    10    16    1
    25    16    17    1
    26    10    11   ar
    27    11     6   ar
    28    25    19   ar
    29    24    26    1
    30    24    27    1
@<TRIPOS>MOLECULE
*****
 29 30 0 0 0
SMALL
GASTEIGER

@<TRIPOS>ATOM
      1 S         142.2635  138.6152  158.8442 S.O2    1  UNL1        0.0141
      2 O         143.7246  138.9388  158.9456 O.2     1  UNL1       -0.1683
      3 O         140.8023  138.2917  158.7427 O.2     1  UNL1       -0.1683
      4 C         142.5320  137.9989  161.3537 C.2     1  UNL1        0.0257
      5 C         142.0863  138.9612  160.2929 C.2     1  UNL1        0.1232
      6 C         142.0003  139.0367  165.7000 C.ar    1  UNL1        0.1448
      7 C         143.2437  139.4587  164.9749 C.ar    1  UNL1        0.0740
      8 C         143.4209  139.1127  163.5261 C.ar    1  UNL1        0.1446
      9 C         142.3548  138.3448  162.8025 C.ar    1  UNL1        0.0694
     10 C         141.1114  137.9229  163.5277 C.ar    1  UNL1        0.1446
     11 C         140.9342  138.2688  164.9764 C.ar    1  UNL1        0.0740
     12 C         140.6877  140.2649  167.5758 C.3     1  UNL1        0.2525
     13 O         141.8231  139.3826  167.1488 O.3     1  UNL1       -0.4712
     14 O         144.6644  139.5348  162.8009 O.3     1  UNL1       -0.4712
     15 C         144.8634  140.9741  162.4285 C.3     1  UNL1        0.2525
     16 O         140.0452  137.1549  162.8041 O.3     1  UNL1       -0.4712
     17 C         138.8409  137.8690  162.2660 C.3     1  UNL1        0.2525
     18 C         142.4407  138.2693  157.3954 C.3     1  UNL1        0.1839
     19 C         142.3756  136.8376  156.9527 C.ar    1  UNL1        0.0223
     20 C         141.4833  136.4449  155.8127 C.ar    1  UNL1        0.0995
     21 N         141.4182  135.0132  155.3701 N.ar    1  UNL1       -0.2094
     22 C         142.2454  133.9742  156.0675 C.ar    1  UNL1        0.2383
     23 C         143.1376  134.3669  157.2075 C.ar    1  UNL1        0.0953
     24 N         143.9648  133.3280  157.9048 N.pl3   1  UNL1       -0.3534
     25 C         143.2027  135.7987  157.6501 C.ar    1  UNL1        0.0178
     26 H         143.9220  132.3883  157.6143 H       1  UNL1        0.1425
     27 H         144.5504  133.5857  158.6531 H       1  UNL1        0.1425
     28 O         142.1802  132.5425  155.6248 O.3     1  UNL1       -0.4553
     29 C         143.1172  132.0415  154.5660 C.3     1  UNL1        0.2543
@<TRIPOS>BOND
     1    12    13    1
     2    13     6    1
     3     6     7   ar
     4     7     8   ar
     5     8    14    1
     6    14    15    1
     7     8     9   ar
     8     9     4    1
     9     4     5    2
    10     5     1    1
    11     1     2    2
    12     1     3    2
    13     1    18    1
    14    18    19    1
    15    19    20   ar
    16    20    21   ar
    17    21    22   ar
    18    22    28    1
    19    28    29    1
    20    22    23   ar
    21    23    24    1
    22    23    25   ar
    23     9    10   ar
    24    10    16    1
    25    16    17    1
    26    10    11   ar
    27    11     6   ar
    28    25    19   ar
    29    24    26    1
    30    24    27    1
@<TRIPOS>MOLECULE
*****
 29 30 0 0 0
SMALL
GASTEIGER

@<TRIPOS>ATOM
      1 S         141.1716  144.9184  160.1545 S.O2    1  UNL1        0.0141
      2 O         142.5281  144.3211  159.9245 O.2     1  UNL1       -0.1683
      3 O         139.8150  145.5157  160.3846 O.2     1  UNL1       -0.1683
      4 C         141.4416  144.8180  162.7366 C.2     1  UNL1        0.0257
      5 C         141.0568  144.1610  161.4442 C.2     1  UNL1        0.1232
      6 C         141.0974  142.5459  166.6056 C.ar    1  UNL1        0.1448
      7 C         142.3841  142.5242  165.8350 C.ar    1  UNL1        0.0740
      8 C         142.4988  143.2816  164.5453 C.ar    1  UNL1        0.1446
      9 C         141.3269  144.0606  164.0262 C.ar    1  UNL1        0.0694
     10 C         140.0401  144.0823  164.7968 C.ar    1  UNL1        0.1446
     11 C         139.9254  143.3250  166.0865 C.ar    1  UNL1        0.0740
     12 C         140.4194  142.4607  169.1122 C.3     1  UNL1        0.2525
     13 O         140.9826  141.7886  167.8952 O.3     1  UNL1       -0.4712
     14 O         143.7857  143.2599  163.7748 O.3     1  UNL1       -0.4712
     15 C         144.9319  142.4186  164.2526 C.3     1  UNL1        0.2525
     16 O         138.8681  144.8614  164.2777 O.3     1  UNL1       -0.4712
     17 C         137.8570  144.1947  163.3928 C.3     1  UNL1        0.2525
     18 C         141.2863  145.6757  158.8649 C.3     1  UNL1        0.1839
     19 C         140.4437  145.2838  157.6874 C.ar    1  UNL1        0.0223
     20 C         140.2556  143.8347  157.3489 C.ar    1  UNL1        0.0995
     21 N         139.4130  143.4428  156.1715 N.ar    1  UNL1       -0.2094
     22 C         138.7585  144.5000  155.3325 C.ar    1  UNL1        0.2383
     23 C         138.9467  145.9492  155.6710 C.ar    1  UNL1        0.0953
     24 N         138.2922  147.0064  154.8320 N.pl3   1  UNL1       -0.3534
     25 C         139.7893  146.3411  156.8485 C.ar    1  UNL1        0.0178
     26 H         137.7392  146.7492  154.0592 H       1  UNL1        0.1425
     27 H         138.4157  147.9575  155.0542 H       1  UNL1        0.1425
     28 O         137.9160  144.1081  154.1550 O.3     1  UNL1       -0.4553
     29 C         136.6026  143.4160  154.3698 C.3     1  UNL1        0.2543
@<TRIPOS>BOND
     1    12    13    1
     2    13     6    1
     3     6     7   ar
     4     7     8   ar
     5     8    14    1
     6    14    15    1
     7     8     9   ar
     8     9     4    1
     9     4     5    2
    10     5     1    1
    11     1     2    2
    12     1     3    2
    13     1    18    1
    14    18    19    1
    15    19    20   ar
    16    20    21   ar
    17    21    22   ar
    18    22    28    1
    19    28    29    1
    20    22    23   ar
    21    23    24    1
    22    23    25   ar
    23     9    10   ar
    24    10    16    1
    25    16    17    1
    26    10    11   ar
    27    11     6   ar
    28    25    19   ar
    29    24    26    1
    30    24    27    1
@<TRIPOS>MOLECULE
*****
 29 30 0 0 0
SMALL
GASTEIGER

@<TRIPOS>ATOM
      1 S         138.8509  138.6967  164.3658 S.O2    1  UNL1        0.0141
      2 O         139.6388  137.6907  165.1515 O.2     1  UNL1       -0.1683
      3 O         138.0630  139.7026  163.5802 O.2     1  UNL1       -0.1683
      4 C         140.4249  139.1981  162.3606 C.2     1  UNL1        0.0257
      5 C         139.5348  138.2498  163.1078 C.2     1  UNL1        0.1232
      6 C         142.4766  137.8575  158.5865 C.ar    1  UNL1        0.1448
      7 C         143.1672  137.7074  159.9096 C.ar    1  UNL1        0.0740
      8 C         142.4833  138.1543  161.1676 C.ar    1  UNL1        0.1446
      9 C         141.1088  138.7513  161.1026 C.ar    1  UNL1        0.0694
     10 C         140.4181  138.9013  159.7795 C.ar    1  UNL1        0.1446
     11 C         141.1020  138.4544  158.5215 C.ar    1  UNL1        0.0740
     12 C         143.3276  138.3672  156.1853 C.3     1  UNL1        0.2525
     13 O         143.1605  137.4106  157.3285 O.3     1  UNL1       -0.4712
     14 O         143.1740  138.0042  162.4907 O.3     1  UNL1       -0.4712
     15 C         144.0895  139.0844  162.9856 C.3     1  UNL1        0.2525
     16 O         139.0435  139.4983  159.7145 O.3     1  UNL1       -0.4712
     17 C         138.8723  140.9536  159.3942 C.3     1  UNL1        0.2525
     18 C         138.1670  139.1435  165.6238 C.3     1  UNL1        0.1839
     19 C         138.9233  139.9378  166.6471 C.ar    1  UNL1        0.0223
     20 C         139.7839  141.0886  166.2172 C.ar    1  UNL1        0.0995
     21 N         140.5402  141.8828  167.2405 N.ar    1  UNL1       -0.2094
     22 C         140.4359  141.5262  168.6938 C.ar    1  UNL1        0.2383
     23 C         139.5752  140.3754  169.1237 C.ar    1  UNL1        0.0953
     24 N         139.4709  140.0187  170.5770 N.pl3   1  UNL1       -0.3534
     25 C         138.8189  139.5811  168.1003 C.ar    1  UNL1        0.0178
     26 H         139.9673  140.5400  171.2486 H       1  UNL1        0.1425
     27 H         138.9060  139.2634  170.8591 H       1  UNL1        0.1425
     28 O         141.1922  142.3204  169.7171 O.3     1  UNL1       -0.4553
     29 C         142.6856  142.2075  169.8004 C.3     1  UNL1        0.2543
@<TRIPOS>BOND
     1    12    13    1
     2    13     6    1
     3     6     7   ar
     4     7     8   ar
     5     8    14    1
     6    14    15    1
     7     8     9   ar
     8     9     4    1
     9     4     5    2
    10     5     1    1
    11     1     2    2
    12     1     3    2
    13     1    18    1
    14    18    19    1
    15    19    20   ar
    16    20    21   ar
    17    21    22   ar
    18    22    28    1
    19    28    29    1
    20    22    23   ar
    21    23    24    1
    22    23    25   ar
    23     9    10   ar
    24    10    16    1
    25    16    17    1
    26    10    11   ar
    27    11     6   ar
    28    25    19   ar
    29    24    26    1
    30    24    27    1
