@<TRIPOS>MOLECULE
*****
 63 65 0 0 0
SMALL
GASTEIGER

@<TRIPOS>ATOM
      1 C         141.0453  144.5240  161.9293 C.3     1  UNL1        0.1953
      2 O         141.5008  144.6547  160.5061 O.3     1  UNL1       -0.4497
      3 C         142.0058  144.1293  159.1952 C.2     1  UNL1        0.3188
      4 O         142.1191  145.3699  158.3596 O.2     1  UNL1       -0.2500
      5 C         142.4605  143.0517  158.2559 C.3     1  UNL1        0.1263
      6 C         142.6502  143.9949  157.3088 C.3     1  UNL1        0.0142
      7 C         142.7747  141.6354  157.8745 C.3     1  UNL1        0.1306
      8 C         142.8862  140.1609  158.1266 C.3     1  UNL1        0.0575
      9 C         143.3913  139.6355  156.8155 C.3     1  UNL1        0.0051
     10 C         142.7729  138.9203  158.9620 C.3     1  UNL1        0.1444
     11 C         142.4573  138.1592  160.2155 C.3     1  UNL1        0.1137
     12 C         142.9397  137.2468  159.1271 C.3     1  UNL1        0.0318
     13 O         142.4941  136.7315  160.6737 O.3     1  UNL1       -0.3844
     14 C         142.0019  138.0285  161.6387 C.3     1  UNL1        0.0350
     15 C         141.4968  138.5539  162.9497 C.3     1  UNL1        0.0418
     16 C         141.3835  137.3133  163.7852 C.3     1  UNL1        0.0061
     17 C         141.0421  139.6315  163.8889 C.2     1  UNL1        0.0767
     18 N         140.7265  138.8704  165.1424 N.2     1  UNL1       -0.0887
     19 C         140.7279  141.0478  164.2703 C.3     1  UNL1        0.0686
     20 C         140.2724  140.9171  165.6935 C.3     1  UNL1        0.0087
     21 C         140.6164  142.5223  164.0182 C.3     1  UNL1        0.1435
     22 O         140.1113  143.0477  165.3293 O.3     1  UNL1       -0.3816
     23 C         140.7297  143.7629  163.1828 C.3     1  UNL1        0.1496
     24 C         140.2301  144.0750  164.5623 C.3     1  UNL1        0.0356
     25 O         140.4779  145.2315  163.3553 O.3     1  UNL1       -0.3808
     26 H         142.8092  136.1676  159.9500 H       1  UNL1        0.2103
     27 H         140.0019  142.3120  165.9519 H       1  UNL1        0.2105
     28 H         140.1567  145.4011  164.2547 H       1  UNL1        0.2105
     29 C         139.5301  146.6249  161.7287 C.3     1  UNL1        0.0039
     30 C         140.7311  145.9403  162.3107 C.3     1  UNL1        0.0462
     31 O         143.2302  141.7662  156.4513 O.3     1  UNL1       -0.3323
     32 C         144.6882  141.9364  156.1432 C.3     1  UNL1        0.2375
     33 C         145.2142  141.5800  154.7843 C.3     1  UNL1        0.0910
     34 C         146.6723  141.7503  154.4761 C.3     1  UNL1        0.1246
     35 C         147.9622  141.7359  153.7107 C.3     1  UNL1        0.0324
     36 C         147.6044  142.2769  155.5268 C.3     1  UNL1        0.1623
     37 O         149.0625  142.4471  155.2185 O.3     1  UNL1       -0.3796
     38 C         147.0784  142.6333  156.8856 C.3     1  UNL1        0.1468
     39 C         148.0106  143.1599  157.9362 C.3     1  UNL1        0.0348
     40 O         145.6204  142.4631  157.1938 O.3     1  UNL1       -0.3304
     41 H         149.2338  142.1730  154.3040 H       1  UNL1        0.2105
     42 O         146.1882  141.2187  153.1597 O.3     1  UNL1       -0.3532
     43 C         147.1730  140.8739  152.0822 C.3     1  UNL1        0.1740
     44 O         143.2276  137.8428  158.0228 O.3     1  UNL1       -0.3287
     45 C         142.2427  137.1865  157.1011 C.3     1  UNL1        0.2643
     46 O         140.9337  137.8556  156.8028 O.3     1  UNL1       -0.3311
     47 C         139.9490  137.1993  155.8812 C.3     1  UNL1        0.1194
     48 C         138.6399  137.8684  155.5829 C.3     1  UNL1        0.0322
     49 C         140.2731  135.8741  155.2578 C.3     1  UNL1        0.0482
     50 C         141.5821  135.2050  155.5561 C.3     1  UNL1        0.0921
     51 C         142.5669  135.8612  156.4777 C.3     1  UNL1        0.1815
     52 O         143.8759  135.1922  156.7761 O.3     1  UNL1       -0.3783
     53 H         144.3906  135.7456  157.3842 H       1  UNL1        0.2106
     54 N         141.9062  133.8798  154.9327 N.3     1  UNL1       -0.2692
     55 C         141.9078  132.6365  155.7719 C.3     1  UNL1        0.0897
     56 C         142.2286  133.7978  153.4700 C.3     1  UNL1        0.0897
     57 O         140.2272  139.5976  166.3556 O.2     1  UNL1       -0.3437
     58 C         138.8661  139.2909  166.9065 C.3     1  UNL1        0.3886
     59 O         138.6363  139.3047  168.3888 O.3     1  UNL1       -0.3114
     60 C         139.2578  140.3768  169.2341 C.3     1  UNL1        0.1781
     61 C         140.0571  140.0056  170.4479 C.3     1  UNL1        0.1744
     62 O         140.4714  141.0649  171.4258 O.3     1  UNL1       -0.3484
     63 C         141.7016  141.8836  171.1681 C.3     1  UNL1        0.1742
@<TRIPOS>BOND
     1    29    30    1
     2    30     1    1
     3     1     2    1
     4     2     3    1
     5     3     4    2
     6     3     5    1
     7     5     6    1
     8     5     7    1
     9     7    31    1
    10    31    32    1
    11    32    33    1
    12    33    34    1
    13    34    35    1
    14    34    42    1
    15    42    43    1
    16    34    36    1
    17    36    37    1
    18    36    38    1
    19    38    39    1
    20    38    40    1
    21     7     8    1
    22     8     9    1
    23     8    10    1
    24    10    44    1
    25    44    45    1
    26    45    46    1
    27    46    47    1
    28    47    48    1
    29    47    49    1
    30    49    50    1
    31    50    54    1
    32    54    55    1
    33    54    56    1
    34    50    51    1
    35    51    52    1
    36    10    11    1
    37    11    12    1
    38    11    13    1
    39    11    14    1
    40    14    15    1
    41    15    16    1
    42    15    17    1
    43    17    18    2
    44    18    57    1
    45    57    58    1
    46    58    59    1
    47    59    60    1
    48    60    61    1
    49    61    62    1
    50    62    63    1
    51    17    19    1
    52    19    20    1
    53    19    21    1
    54    21    22    1
    55    21    23    1
    56    23    24    1
    57    23    25    1
    58    23     1    1
    59    40    32    1
    60    51    45    1
    61    37    41    1
    62    52    53    1
    63    13    26    1
    64    22    27    1
    65    25    28    1
@<TRIPOS>MOLECULE
*****
 63 65 0 0 0
SMALL
GASTEIGER

@<TRIPOS>ATOM
      1 C         138.0786  140.3161  153.7128 C.3     1  UNL1        0.1953
      2 O         137.7300  141.7716  153.8146 O.3     1  UNL1       -0.4497
      3 C         137.8319  143.1477  154.4026 C.2     1  UNL1        0.3188
      4 O         136.8651  143.9382  153.5715 O.2     1  UNL1       -0.2500
      5 C         138.3639  144.1721  155.3605 C.3     1  UNL1        0.1263
      6 C         137.5714  145.0936  154.7729 C.3     1  UNL1        0.0142
      7 C         139.2209  144.6419  156.4985 C.3     1  UNL1        0.1306
      8 C         140.2330  144.4638  157.5912 C.3     1  UNL1        0.0575
      9 C         140.3348  145.8400  158.1792 C.3     1  UNL1        0.0051
     10 C         141.1997  143.6734  158.4222 C.3     1  UNL1        0.1444
     11 C         141.9296  142.4270  158.8270 C.3     1  UNL1        0.1137
     12 C         142.3260  143.5957  159.6797 C.3     1  UNL1        0.0318
     13 O         142.9492  142.0345  159.8548 O.3     1  UNL1       -0.3844
     14 C         142.2782  140.9716  158.7253 C.3     1  UNL1        0.0350
     15 C         142.1763  139.5955  158.1373 C.3     1  UNL1        0.0418
     16 C         143.1430  138.8050  158.9683 C.3     1  UNL1        0.0061
     17 C         141.6442  138.5710  157.1794 C.2     1  UNL1        0.0767
     18 N         142.3742  137.3247  157.5841 N.2     1  UNL1       -0.0887
     19 C         140.7873  138.1013  156.0414 C.3     1  UNL1        0.0686
     20 C         141.1359  136.6459  155.9396 C.3     1  UNL1        0.0087
     21 C         139.7752  138.2794  154.9486 C.3     1  UNL1        0.1435
     22 O         139.6734  136.9032  154.3606 O.3     1  UNL1       -0.3816
     23 C         138.8085  139.0698  154.1176 C.3     1  UNL1        0.1496
     24 C         138.8590  137.6350  153.6832 C.3     1  UNL1        0.0356
     25 O         137.8787  138.8119  152.9692 O.3     1  UNL1       -0.3808
     26 H         143.1847  142.8092  160.3889 H       1  UNL1        0.2103
     27 H         140.2702  136.3037  154.8354 H       1  UNL1        0.2105
     28 H         137.9339  137.8783  152.7119 H       1  UNL1        0.2105
     29 C         135.7270  139.8901  152.6937 C.3     1  UNL1        0.0039
     30 C         137.2216  139.8464  152.5748 C.3     1  UNL1        0.0462
     31 O         138.8723  146.0973  156.6002 O.3     1  UNL1       -0.3323
     32 C         139.3809  147.0638  155.5721 C.3     1  UNL1        0.2375
     33 C         138.9491  148.4997  155.6142 C.3     1  UNL1        0.0910
     34 C         139.4577  149.4664  154.5861 C.3     1  UNL1        0.1246
     35 C         139.6646  150.7509  153.8397 C.3     1  UNL1        0.0324
     36 C         140.3982  148.9971  153.5159 C.3     1  UNL1        0.1623
     37 O         140.9067  149.9637  152.4879 O.3     1  UNL1       -0.3796
     38 C         140.8300  147.5612  153.4738 C.3     1  UNL1        0.1468
     39 C         141.7704  147.0920  152.4036 C.3     1  UNL1        0.0348
     40 O         140.3214  146.5946  154.5018 O.3     1  UNL1       -0.3304
     41 H         140.5332  150.8427  152.6578 H       1  UNL1        0.2105
     42 O         138.5891  150.3817  155.3971 O.3     1  UNL1       -0.3532
     43 C         138.5389  151.8463  155.0774 C.3     1  UNL1        0.1740
     44 O         141.7317  144.6977  159.3801 O.3     1  UNL1       -0.3287
     45 C         141.7424  144.4133  160.8529 C.3     1  UNL1        0.2643
     46 O         143.0450  144.3382  161.5928 O.3     1  UNL1       -0.3311
     47 C         143.0556  144.0537  163.0655 C.3     1  UNL1        0.1194
     48 C         144.3583  143.9786  163.8055 C.3     1  UNL1        0.0322
     49 C         141.7637  143.8444  163.7983 C.3     1  UNL1        0.0482
     50 C         140.4611  143.9196  163.0584 C.3     1  UNL1        0.0921
     51 C         140.4503  144.2040  161.5857 C.3     1  UNL1        0.1815
     52 O         139.1478  144.2792  160.8457 O.3     1  UNL1       -0.3783
     53 H         139.3181  144.4692  159.9098 H       1  UNL1        0.2106
     54 N         139.1691  143.7103  163.7912 N.3     1  UNL1       -0.2692
     55 C         138.3996  142.4361  163.6059 C.3     1  UNL1        0.0897
     56 C         138.6467  144.7752  164.7094 C.3     1  UNL1        0.0897
     57 O         142.1222  136.0380  156.8556 O.2     1  UNL1       -0.3437
     58 C         143.2319  135.0434  156.6843 C.3     1  UNL1        0.3886
     59 O         143.2562  133.7959  157.5170 O.3     1  UNL1       -0.3114
     60 C         144.5628  133.2486  158.0101 C.3     1  UNL1        0.1781
     61 C         145.0292  131.8973  157.5557 C.3     1  UNL1        0.1744
     62 O         145.2651  131.6366  156.0974 O.3     1  UNL1       -0.3484
     63 C         144.8600  130.3239  155.4951 C.3     1  UNL1        0.1742
@<TRIPOS>BOND
     1    29    30    1
     2    30     1    1
     3     1     2    1
     4     2     3    1
     5     3     4    2
     6     3     5    1
     7     5     6    1
     8     5     7    1
     9     7    31    1
    10    31    32    1
    11    32    33    1
    12    33    34    1
    13    34    35    1
    14    34    42    1
    15    42    43    1
    16    34    36    1
    17    36    37    1
    18    36    38    1
    19    38    39    1
    20    38    40    1
    21     7     8    1
    22     8     9    1
    23     8    10    1
    24    10    44    1
    25    44    45    1
    26    45    46    1
    27    46    47    1
    28    47    48    1
    29    47    49    1
    30    49    50    1
    31    50    54    1
    32    54    55    1
    33    54    56    1
    34    50    51    1
    35    51    52    1
    36    10    11    1
    37    11    12    1
    38    11    13    1
    39    11    14    1
    40    14    15    1
    41    15    16    1
    42    15    17    1
    43    17    18    2
    44    18    57    1
    45    57    58    1
    46    58    59    1
    47    59    60    1
    48    60    61    1
    49    61    62    1
    50    62    63    1
    51    17    19    1
    52    19    20    1
    53    19    21    1
    54    21    22    1
    55    21    23    1
    56    23    24    1
    57    23    25    1
    58    23     1    1
    59    40    32    1
    60    51    45    1
    61    37    41    1
    62    52    53    1
    63    13    26    1
    64    22    27    1
    65    25    28    1
@<TRIPOS>MOLECULE
*****
 63 65 0 0 0
SMALL
GASTEIGER

@<TRIPOS>ATOM
      1 C         138.4997  140.0021  153.7525 C.3     1  UNL1        0.1953
      2 O         138.0254  141.4245  153.7935 O.3     1  UNL1       -0.4497
      3 C         137.9827  142.8195  154.3430 C.2     1  UNL1        0.3188
      4 O         136.9938  143.5020  153.4450 O.2     1  UNL1       -0.2500
      5 C         138.3801  143.9110  155.2922 C.3     1  UNL1        0.1263
      6 C         137.5419  144.7452  154.6412 C.3     1  UNL1        0.0142
      7 C         139.1389  144.4825  156.4530 C.3     1  UNL1        0.1306
      8 C         140.1089  144.4210  157.5957 C.3     1  UNL1        0.0575
      9 C         140.0662  145.8161  158.1451 C.3     1  UNL1        0.0051
     10 C         141.0977  143.7387  158.4937 C.3     1  UNL1        0.1444
     11 C         141.9098  142.5706  158.9693 C.3     1  UNL1        0.1137
     12 C         142.1651  143.7912  159.8028 C.3     1  UNL1        0.0318
     13 O         142.9083  142.2944  160.0539 O.3     1  UNL1       -0.3844
     14 C         142.3841  141.1481  158.9283 C.3     1  UNL1        0.0350
     15 C         142.4268  139.7531  158.3788 C.3     1  UNL1        0.0418
     16 C         143.4157  139.0707  159.2768 C.3     1  UNL1        0.0061
     17 C         142.0293  138.6616  157.4296 C.2     1  UNL1        0.0767
     18 N         142.8414  137.4936  157.9052 N.2     1  UNL1       -0.0887
     19 C         141.2705  138.0901  156.2687 C.3     1  UNL1        0.0686
     20 C         141.7449  136.6676  156.2277 C.3     1  UNL1        0.0087
     21 C         140.3006  138.1516  155.1261 C.3     1  UNL1        0.1435
     22 O         140.3433  136.7565  154.5766 O.3     1  UNL1       -0.3816
     23 C         139.3117  138.8340  154.2281 C.3     1  UNL1        0.1496
     24 C         139.5036  137.3977  153.8407 C.3     1  UNL1        0.0356
     25 O         138.4631  138.4669  153.0470 O.3     1  UNL1       -0.3808
     26 H         143.0519  143.1004  160.5742 H       1  UNL1        0.2103
     27 H         140.9650  136.2233  155.0963 H       1  UNL1        0.2105
     28 H         138.6089  137.5348  152.8213 H       1  UNL1        0.2105
     29 C         136.2710  139.1591  152.7170 C.3     1  UNL1        0.0039
     30 C         137.7409  139.4305  152.5916 C.3     1  UNL1        0.0462
     31 O         138.6646  145.9050  156.4941 O.3     1  UNL1       -0.3323
     32 C         139.2259  146.9107  155.5331 C.3     1  UNL1        0.2375
     33 C         138.7972  148.3458  155.6141 C.3     1  UNL1        0.0910
     34 C         139.3585  149.3516  154.6531 C.3     1  UNL1        0.1246
     35 C         139.6058  150.6649  153.9718 C.3     1  UNL1        0.0324
     36 C         140.3485  148.9222  153.6111 C.3     1  UNL1        0.1623
     37 O         140.9097  149.9280  152.6502 O.3     1  UNL1       -0.3796
     38 C         140.7771  147.4870  153.5302 C.3     1  UNL1        0.1468
     39 C         141.7671  147.0576  152.4883 C.3     1  UNL1        0.0348
     40 O         140.2159  146.4813  154.4911 O.3     1  UNL1       -0.3304
     41 H         140.5313  150.8011  152.8384 H       1  UNL1        0.2105
     42 O         138.4544  150.2371  155.4584 O.3     1  UNL1       -0.3532
     43 C         138.3253  150.0299  156.9383 C.3     1  UNL1        0.1740
     44 O         141.4951  144.8300  159.4428 O.3     1  UNL1       -0.3287
     45 C         141.4580  144.5873  160.9226 C.3     1  UNL1        0.2643
     46 O         142.6897  144.8080  161.7499 O.3     1  UNL1       -0.3311
     47 C         142.6525  144.5653  163.2297 C.3     1  UNL1        0.1194
     48 C         143.8842  144.7859  164.0570 C.3     1  UNL1        0.0322
     49 C         141.3838  144.1021  163.8821 C.3     1  UNL1        0.0482
     50 C         140.1522  143.8815  163.0549 C.3     1  UNL1        0.0921
     51 C         140.1892  144.1241  161.5751 C.3     1  UNL1        0.1815
     52 O         138.9577  143.9035  160.7477 O.3     1  UNL1       -0.3783
     53 H         139.1519  144.1044  159.8189 H       1  UNL1        0.2106
     54 N         138.8835  143.4182  163.7074 N.3     1  UNL1       -0.2692
     55 C         137.9538  144.4158  164.3322 C.3     1  UNL1        0.0897
     56 C         138.5445  141.9573  163.7351 C.3     1  UNL1        0.0897
     57 O         142.7338  136.1710  157.2058 O.2     1  UNL1       -0.3437
     58 C         143.6813  135.8315  156.0936 C.3     1  UNL1        0.3886
     59 O         144.7903  136.7770  155.7383 O.3     1  UNL1       -0.3114
     60 C         144.5512  137.8732  154.7427 C.3     1  UNL1        0.1781
     61 C         145.0916  139.2490  154.9978 C.3     1  UNL1        0.1744
     62 O         145.3112  139.7194  156.4051 O.3     1  UNL1       -0.3484
     63 C         145.4231  141.1866  156.6966 C.3     1  UNL1        0.1742
@<TRIPOS>BOND
     1    29    30    1
     2    30     1    1
     3     1     2    1
     4     2     3    1
     5     3     4    2
     6     3     5    1
     7     5     6    1
     8     5     7    1
     9     7    31    1
    10    31    32    1
    11    32    33    1
    12    33    34    1
    13    34    35    1
    14    34    42    1
    15    42    43    1
    16    34    36    1
    17    36    37    1
    18    36    38    1
    19    38    39    1
    20    38    40    1
    21     7     8    1
    22     8     9    1
    23     8    10    1
    24    10    44    1
    25    44    45    1
    26    45    46    1
    27    46    47    1
    28    47    48    1
    29    47    49    1
    30    49    50    1
    31    50    54    1
    32    54    55    1
    33    54    56    1
    34    50    51    1
    35    51    52    1
    36    10    11    1
    37    11    12    1
    38    11    13    1
    39    11    14    1
    40    14    15    1
    41    15    16    1
    42    15    17    1
    43    17    18    2
    44    18    57    1
    45    57    58    1
    46    58    59    1
    47    59    60    1
    48    60    61    1
    49    61    62    1
    50    62    63    1
    51    17    19    1
    52    19    20    1
    53    19    21    1
    54    21    22    1
    55    21    23    1
    56    23    24    1
    57    23    25    1
    58    23     1    1
    59    40    32    1
    60    51    45    1
    61    37    41    1
    62    52    53    1
    63    13    26    1
    64    22    27    1
    65    25    28    1
@<TRIPOS>MOLECULE
*****
 63 65 0 0 0
SMALL
GASTEIGER

@<TRIPOS>ATOM
      1 C         139.9701  144.0331  163.9148 C.3     1  UNL1        0.1953
      2 O         139.9919  144.9475  162.7260 O.3     1  UNL1       -0.4497
      3 C         140.3420  145.3242  161.3169 C.2     1  UNL1        0.3188
      4 O         139.7600  146.7003  161.1848 O.2     1  UNL1       -0.2500
      5 C         140.9512  145.0884  159.9665 C.3     1  UNL1        0.1263
      6 C         140.5281  146.3143  159.5917 C.3     1  UNL1        0.0142
      7 C         141.6987  144.2868  158.9425 C.3     1  UNL1        0.1306
      8 C         142.4366  143.0782  158.4475 C.3     1  UNL1        0.0575
      9 C         142.7867  143.4549  157.0384 C.3     1  UNL1        0.0051
     10 C         143.0186  141.7021  158.5796 C.3     1  UNL1        0.1444
     11 C         143.3295  140.4309  159.3126 C.3     1  UNL1        0.1137
     12 C         143.8636  140.4001  157.9113 C.3     1  UNL1        0.0318
     13 O         144.0307  139.1372  159.0218 O.3     1  UNL1       -0.3844
     14 C         143.3078  139.5164  160.5015 C.3     1  UNL1        0.0350
     15 C         142.9576  139.1398  161.9105 C.3     1  UNL1        0.0418
     16 C         143.5397  137.7636  162.0427 C.3     1  UNL1        0.0061
     17 C         142.3485  139.3756  163.2609 C.2     1  UNL1        0.0767
     18 N         142.6594  138.1044  163.9939 N.2     1  UNL1       -0.0887
     19 C         141.6009  140.1771  164.2850 C.3     1  UNL1        0.0686
     20 C         141.5792  139.2627  165.4738 C.3     1  UNL1        0.0087
     21 C         140.8631  141.3858  164.7799 C.3     1  UNL1        0.1435
     22 O         140.5130  141.0091  166.1891 O.3     1  UNL1       -0.3816
     23 C         140.2811  142.7619  164.6478 C.3     1  UNL1        0.1496
     24 C         140.0357  142.1919  166.0134 C.3     1  UNL1        0.0356
     25 O         139.5198  143.7215  165.5135 O.3     1  UNL1       -0.3808
     26 H         144.3639  139.1477  158.1109 H       1  UNL1        0.2103
     27 H         140.8502  140.1197  166.3793 H       1  UNL1        0.2105
     28 H         139.3772  143.3255  166.3874 H       1  UNL1        0.2105
     29 C         137.7496  144.6234  165.1276 C.3     1  UNL1        0.0039
     30 C         139.2226  144.8346  164.9389 C.3     1  UNL1        0.0462
     31 O         141.7205  145.2013  157.7537 O.3     1  UNL1       -0.3323
     32 C         140.4957  145.3519  156.9008 C.3     1  UNL1        0.2375
     33 C         139.5702  144.1877  156.7054 C.3     1  UNL1        0.0910
     34 C         138.3454  144.3382  155.8526 C.3     1  UNL1        0.1246
     35 C         137.0708  143.9902  155.1424 C.3     1  UNL1        0.0324
     36 C         138.0462  145.6530  155.1952 C.3     1  UNL1        0.1623
     37 O         136.8214  145.8034  154.3424 O.3     1  UNL1       -0.3796
     38 C         138.9718  146.8170  155.3907 C.3     1  UNL1        0.1468
     39 C         138.6725  148.1317  154.7332 C.3     1  UNL1        0.0348
     40 O         140.1965  146.6665  156.2434 O.3     1  UNL1       -0.3304
     41 H         136.3370  144.9633  154.3212 H       1  UNL1        0.2105
     42 O         138.2020  142.9027  156.2633 O.3     1  UNL1       -0.3532
     43 C         136.9860  142.1243  155.8569 C.3     1  UNL1        0.1740
     44 O         143.6277  141.4663  157.2293 O.3     1  UNL1       -0.3287
     45 C         143.1975  140.2871  156.4080 C.3     1  UNL1        0.2643
     46 O         144.0877  139.0849  156.2980 O.3     1  UNL1       -0.3311
     47 C         143.6574  137.9058  155.4767 C.3     1  UNL1        0.1194
     48 C         144.5476  136.7034  155.3667 C.3     1  UNL1        0.0322
     49 C         142.3370  137.9289  154.7654 C.3     1  UNL1        0.0482
     50 C         141.4468  139.1312  154.8754 C.3     1  UNL1        0.0921
     51 C         141.8770  140.3103  155.6967 C.3     1  UNL1        0.1815
     52 O         140.9869  141.5126  155.8067 O.3     1  UNL1       -0.3783
     53 H         141.4113  142.1787  156.3699 H       1  UNL1        0.2106
     54 N         140.1264  139.1543  154.1640 N.3     1  UNL1       -0.2692
     55 C         138.8971  138.6330  154.8474 C.3     1  UNL1        0.0897
     56 C         140.0353  139.6987  152.7693 C.3     1  UNL1        0.0897
     57 O         142.2123  137.9296  165.4150 O.2     1  UNL1       -0.3437
     58 C         143.1403  138.2766  166.5413 C.3     1  UNL1        0.3886
     59 O         142.9390  139.5459  167.3149 O.3     1  UNL1       -0.3114
     60 C         142.7442  139.4953  168.8014 C.3     1  UNL1        0.1781
     61 C         141.3808  139.7148  169.3869 C.3     1  UNL1        0.1744
     62 O         140.7348  141.0656  169.2975 O.3     1  UNL1       -0.3484
     63 C         139.4155  141.3119  169.9675 C.3     1  UNL1        0.1742
@<TRIPOS>BOND
     1    29    30    1
     2    30     1    1
     3     1     2    1
     4     2     3    1
     5     3     4    2
     6     3     5    1
     7     5     6    1
     8     5     7    1
     9     7    31    1
    10    31    32    1
    11    32    33    1
    12    33    34    1
    13    34    35    1
    14    34    42    1
    15    42    43    1
    16    34    36    1
    17    36    37    1
    18    36    38    1
    19    38    39    1
    20    38    40    1
    21     7     8    1
    22     8     9    1
    23     8    10    1
    24    10    44    1
    25    44    45    1
    26    45    46    1
    27    46    47    1
    28    47    48    1
    29    47    49    1
    30    49    50    1
    31    50    54    1
    32    54    55    1
    33    54    56    1
    34    50    51    1
    35    51    52    1
    36    10    11    1
    37    11    12    1
    38    11    13    1
    39    11    14    1
    40    14    15    1
    41    15    16    1
    42    15    17    1
    43    17    18    2
    44    18    57    1
    45    57    58    1
    46    58    59    1
    47    59    60    1
    48    60    61    1
    49    61    62    1
    50    62    63    1
    51    17    19    1
    52    19    20    1
    53    19    21    1
    54    21    22    1
    55    21    23    1
    56    23    24    1
    57    23    25    1
    58    23     1    1
    59    40    32    1
    60    51    45    1
    61    37    41    1
    62    52    53    1
    63    13    26    1
    64    22    27    1
    65    25    28    1
@<TRIPOS>MOLECULE
*****
 63 65 0 0 0
SMALL
GASTEIGER

@<TRIPOS>ATOM
      1 C         142.3741  143.4819  153.8521 C.3     1  UNL1        0.1953
      2 O         143.4002  143.0412  154.8536 O.3     1  UNL1       -0.4497
      3 C         143.8558  142.3738  156.1172 C.2     1  UNL1        0.3188
      4 O         145.3405  142.5864  156.0905 O.2     1  UNL1       -0.2500
      5 C         143.6508  141.6117  157.3929 C.3     1  UNL1        0.1263
      6 C         144.9826  141.6652  157.6071 C.3     1  UNL1        0.0142
      7 C         142.8257  140.9059  158.4278 C.3     1  UNL1        0.1306
      8 C         141.5437  140.3962  159.0170 C.3     1  UNL1        0.0575
      9 C         141.9995  139.7288  160.2807 C.3     1  UNL1        0.0051
     10 C         140.0592  140.1836  159.0438 C.3     1  UNL1        0.1444
     11 C         138.6658  140.3101  158.5029 C.3     1  UNL1        0.1137
     12 C         138.6831  139.5631  159.8035 C.3     1  UNL1        0.0318
     13 O         137.2851  139.8908  158.9123 O.3     1  UNL1       -0.3844
     14 C         137.6397  140.7507  157.5014 C.3     1  UNL1        0.0350
     15 C         137.1841  141.4181  156.2378 C.3     1  UNL1        0.0418
     16 C         135.6994  141.2055  156.2645 C.3     1  UNL1        0.0061
     17 C         137.3891  142.1803  154.9621 C.2     1  UNL1        0.0767
     18 N         135.9957  142.3068  154.4212 N.2     1  UNL1       -0.0887
     19 C         138.2143  142.8860  153.9272 C.3     1  UNL1        0.0686
     20 C         137.1882  143.3267  152.9257 C.3     1  UNL1        0.0087
     21 C         139.4962  143.3957  153.3380 C.3     1  UNL1        0.1435
     22 O         139.0405  144.0632  152.0743 O.3     1  UNL1       -0.3816
     23 C         140.9807  143.6084  153.3112 C.3     1  UNL1        0.1496
     24 C         140.3187  144.2132  152.1088 C.3     1  UNL1        0.0356
     25 O         141.9816  144.2629  152.4058 O.3     1  UNL1       -0.3808
     26 H         137.3291  139.4115  159.7545 H       1  UNL1        0.2103
     27 H         138.0772  143.9812  151.9946 H       1  UNL1        0.2105
     28 H         141.5243  144.6435  151.6397 H       1  UNL1        0.2105
     29 C         144.4824  144.8576  153.2102 C.3     1  UNL1        0.0039
     30 C         143.1993  144.1876  152.8172 C.3     1  UNL1        0.0462
     31 O         143.8518  140.4653  159.4293 O.3     1  UNL1       -0.3323
     32 C         144.0478  141.2458  160.6951 C.3     1  UNL1        0.2375
     33 C         143.5519  142.6583  160.7895 C.3     1  UNL1        0.0910
     34 C         143.7479  143.4390  162.0554 C.3     1  UNL1        0.1246
     35 C         143.6976  144.5762  163.0321 C.3     1  UNL1        0.0324
     36 C         144.4399  142.8070  163.2267 C.3     1  UNL1        0.1623
     37 O         144.6358  143.5877  164.4924 O.3     1  UNL1       -0.3796
     38 C         144.9357  141.3945  163.1321 C.3     1  UNL1        0.1468
     39 C         145.6277  140.7627  164.3035 C.3     1  UNL1        0.0348
     40 O         144.7397  140.6140  161.8664 O.3     1  UNL1       -0.3304
     41 H         144.2600  144.4756  164.3862 H       1  UNL1        0.2105
     42 O         143.0385  144.4658  161.2233 O.3     1  UNL1       -0.3532
     43 C         141.5810  144.3004  160.9098 C.3     1  UNL1        0.1740
     44 O         139.8541  139.4215  160.3193 O.3     1  UNL1       -0.3287
     45 C         139.4205  140.1416  161.5618 C.3     1  UNL1        0.2643
     46 O         138.8322  141.5179  161.4643 O.3     1  UNL1       -0.3311
     47 C         138.3986  142.2379  162.7067 C.3     1  UNL1        0.1194
     48 C         137.8103  143.6143  162.6092 C.3     1  UNL1        0.0322
     49 C         138.5534  141.5816  164.0466 C.3     1  UNL1        0.0482
     50 C         139.1417  140.2052  164.1440 C.3     1  UNL1        0.0921
     51 C         139.5753  139.4852  162.9017 C.3     1  UNL1        0.1815
     52 O         140.1636  138.1088  162.9991 O.3     1  UNL1       -0.3783
     53 H         140.3886  137.7898  162.1111 H       1  UNL1        0.2106
     54 N         139.2964  139.5489  165.4840 N.3     1  UNL1       -0.2692
     55 C         140.6174  139.5940  166.1931 C.3     1  UNL1        0.0897
     56 C         138.1301  138.8475  166.1147 C.3     1  UNL1        0.0897
     57 O         135.7567  143.0220  153.1246 O.2     1  UNL1       -0.3437
     58 C         135.1428  142.2914  151.9672 C.3     1  UNL1        0.3886
     59 O         134.9579  140.8042  152.0320 O.3     1  UNL1       -0.3114
     60 C         136.1504  139.8966  151.9675 C.3     1  UNL1        0.1781
     61 C         136.3394  138.8317  153.0067 C.3     1  UNL1        0.1744
     62 O         137.5693  138.8316  153.8654 O.3     1  UNL1       -0.3484
     63 C         138.9268  138.9048  153.2313 C.3     1  UNL1        0.1742
@<TRIPOS>BOND
     1    29    30    1
     2    30     1    1
     3     1     2    1
     4     2     3    1
     5     3     4    2
     6     3     5    1
     7     5     6    1
     8     5     7    1
     9     7    31    1
    10    31    32    1
    11    32    33    1
    12    33    34    1
    13    34    35    1
    14    34    42    1
    15    42    43    1
    16    34    36    1
    17    36    37    1
    18    36    38    1
    19    38    39    1
    20    38    40    1
    21     7     8    1
    22     8     9    1
    23     8    10    1
    24    10    44    1
    25    44    45    1
    26    45    46    1
    27    46    47    1
    28    47    48    1
    29    47    49    1
    30    49    50    1
    31    50    54    1
    32    54    55    1
    33    54    56    1
    34    50    51    1
    35    51    52    1
    36    10    11    1
    37    11    12    1
    38    11    13    1
    39    11    14    1
    40    14    15    1
    41    15    16    1
    42    15    17    1
    43    17    18    2
    44    18    57    1
    45    57    58    1
    46    58    59    1
    47    59    60    1
    48    60    61    1
    49    61    62    1
    50    62    63    1
    51    17    19    1
    52    19    20    1
    53    19    21    1
    54    21    22    1
    55    21    23    1
    56    23    24    1
    57    23    25    1
    58    23     1    1
    59    40    32    1
    60    51    45    1
    61    37    41    1
    62    52    53    1
    63    13    26    1
    64    22    27    1
    65    25    28    1
@<TRIPOS>MOLECULE
*****
 63 65 0 0 0
SMALL
GASTEIGER

@<TRIPOS>ATOM
      1 C         142.1692  143.4720  153.7995 C.3     1  UNL1        0.1953
      2 O         143.2194  143.0910  154.8005 O.3     1  UNL1       -0.4497
      3 C         143.7097  142.4711  156.0752 C.2     1  UNL1        0.3188
      4 O         145.1861  142.7321  156.0272 O.2     1  UNL1       -0.2500
      5 C         143.5430  141.7348  157.3716 C.3     1  UNL1        0.1263
      6 C         144.8744  141.8379  157.5700 C.3     1  UNL1        0.0142
      7 C         142.7523  141.0283  158.4325 C.3     1  UNL1        0.1306
      8 C         141.4941  140.4913  159.0479 C.3     1  UNL1        0.0575
      9 C         141.9845  139.8713  160.3227 C.3     1  UNL1        0.0051
     10 C         140.0178  140.2302  159.0960 C.3     1  UNL1        0.1444
     11 C         138.6157  140.2967  158.5672 C.3     1  UNL1        0.1137
     12 C         138.6709  139.5837  159.8857 C.3     1  UNL1        0.0318
     13 O         137.2539  139.8423  159.0017 O.3     1  UNL1       -0.3844
     14 C         137.5655  140.6777  157.5662 C.3     1  UNL1        0.0350
     15 C         137.0752  141.2977  156.2914 C.3     1  UNL1        0.0418
     16 C         135.5989  141.0366  156.3395 C.3     1  UNL1        0.0061
     17 C         137.2419  142.0339  154.9951 C.2     1  UNL1        0.0767
     18 N         135.8398  142.1005  154.4663 N.2     1  UNL1       -0.0887
     19 C         138.0326  142.7405  153.9342 C.3     1  UNL1        0.0686
     20 C         136.9824  143.1215  152.9332 C.3     1  UNL1        0.0087
     21 C         139.2908  143.2775  153.3188 C.3     1  UNL1        0.1435
     22 O         138.8005  143.8975  152.0439 O.3     1  UNL1       -0.3816
     23 C         140.7671  143.5386  153.2707 C.3     1  UNL1        0.1496
     24 C         140.0733  144.0906  152.0608 C.3     1  UNL1        0.0356
     25 O         141.7365  144.2030  152.3386 O.3     1  UNL1       -0.3808
     26 H         137.3223  139.3860  159.8550 H       1  UNL1        0.2103
     27 H         137.8398  143.7815  151.9766 H       1  UNL1        0.2105
     28 H         141.2590  144.5488  151.5683 H       1  UNL1        0.2105
     29 C         143.6922  145.4456  153.0678 C.3     1  UNL1        0.0039
     30 C         142.9600  144.1786  152.7386 C.3     1  UNL1        0.0462
     31 O         143.8025  140.6473  159.4334 O.3     1  UNL1       -0.3323
     32 C         144.0007  141.4790  160.6658 C.3     1  UNL1        0.2375
     33 C         143.3607  142.8317  160.7686 C.3     1  UNL1        0.0910
     34 C         143.5589  143.6636  162.0011 C.3     1  UNL1        0.1246
     35 C         143.4533  144.8152  162.9564 C.3     1  UNL1        0.0324
     36 C         144.3972  143.1426  163.1307 C.3     1  UNL1        0.1623
     37 O         144.5953  143.9744  164.3631 O.3     1  UNL1       -0.3796
     38 C         145.0371  141.7899  163.0279 C.3     1  UNL1        0.1468
     39 C         145.8753  141.2690  164.1575 C.3     1  UNL1        0.0348
     40 O         144.8389  140.9581  161.7955 O.3     1  UNL1       -0.3304
     41 H         144.1177  144.8132  164.2672 H       1  UNL1        0.2105
     42 O         142.6840  144.5844  161.2032 O.3     1  UNL1       -0.3532
     43 C         141.3725  144.0940  160.6654 C.3     1  UNL1        0.1740
     44 O         139.8511  139.4941  160.3922 O.3     1  UNL1       -0.3287
     45 C         139.4159  140.2322  161.6233 C.3     1  UNL1        0.2643
     46 O         138.8668  141.6234  161.5089 O.3     1  UNL1       -0.3311
     47 C         138.4316  142.3615  162.7401 C.3     1  UNL1        0.1194
     48 C         137.8825  143.7528  162.6256 C.3     1  UNL1        0.0322
     49 C         138.5454  141.7085  164.0856 C.3     1  UNL1        0.0482
     50 C         139.0944  140.3173  164.2000 C.3     1  UNL1        0.0921
     51 C         139.5297  139.5791  162.9690 C.3     1  UNL1        0.1815
     52 O         140.0787  138.1879  163.0833 O.3     1  UNL1       -0.3783
     53 H         140.3102  137.8581  162.2010 H       1  UNL1        0.2106
     54 N         139.2082  139.6643  165.5457 N.3     1  UNL1       -0.2692
     55 C         140.4908  139.7565  166.3180 C.3     1  UNL1        0.0897
     56 C         138.0394  138.9191  166.1189 C.3     1  UNL1        0.0897
     57 O         135.5640  142.7745  153.1550 O.2     1  UNL1       -0.3437
     58 C         134.5840  142.1711  152.1931 C.3     1  UNL1        0.3886
     59 O         133.2020  141.8147  152.6550 O.3     1  UNL1       -0.3114
     60 C         132.0160  142.5583  152.1160 C.3     1  UNL1        0.1781
     61 C         130.6343  142.2031  152.5794 C.3     1  UNL1        0.1744
     62 O         130.1983  142.5493  153.9723 O.3     1  UNL1       -0.3484
     63 C         130.6304  141.6954  155.1274 C.3     1  UNL1        0.1742
@<TRIPOS>BOND
     1    29    30    1
     2    30     1    1
     3     1     2    1
     4     2     3    1
     5     3     4    2
     6     3     5    1
     7     5     6    1
     8     5     7    1
     9     7    31    1
    10    31    32    1
    11    32    33    1
    12    33    34    1
    13    34    35    1
    14    34    42    1
    15    42    43    1
    16    34    36    1
    17    36    37    1
    18    36    38    1
    19    38    39    1
    20    38    40    1
    21     7     8    1
    22     8     9    1
    23     8    10    1
    24    10    44    1
    25    44    45    1
    26    45    46    1
    27    46    47    1
    28    47    48    1
    29    47    49    1
    30    49    50    1
    31    50    54    1
    32    54    55    1
    33    54    56    1
    34    50    51    1
    35    51    52    1
    36    10    11    1
    37    11    12    1
    38    11    13    1
    39    11    14    1
    40    14    15    1
    41    15    16    1
    42    15    17    1
    43    17    18    2
    44    18    57    1
    45    57    58    1
    46    58    59    1
    47    59    60    1
    48    60    61    1
    49    61    62    1
    50    62    63    1
    51    17    19    1
    52    19    20    1
    53    19    21    1
    54    21    22    1
    55    21    23    1
    56    23    24    1
    57    23    25    1
    58    23     1    1
    59    40    32    1
    60    51    45    1
    61    37    41    1
    62    52    53    1
    63    13    26    1
    64    22    27    1
    65    25    28    1
@<TRIPOS>MOLECULE
*****
 63 65 0 0 0
SMALL
GASTEIGER

@<TRIPOS>ATOM
      1 C         142.0665  138.9083  162.4668 C.3     1  UNL1        0.1953
      2 O         142.3704  138.3190  161.1213 O.3     1  UNL1       -0.4497
      3 C         142.5255  138.3640  159.6301 C.2     1  UNL1        0.3188
      4 O         142.9289  136.9589  159.2939 O.2     1  UNL1       -0.2500
      5 C         142.5010  139.0342  158.2883 C.3     1  UNL1        0.1263
      6 C         142.8688  137.8630  157.7268 C.3     1  UNL1        0.0142
      7 C         142.3019  140.1971  157.3619 C.3     1  UNL1        0.1306
      8 C         141.9675  141.6222  157.0344 C.3     1  UNL1        0.0575
      9 C         142.1226  141.6671  155.5431 C.3     1  UNL1        0.0051
     10 C         141.5641  143.0273  157.3705 C.3     1  UNL1        0.1444
     11 C         141.1715  144.1341  158.3037 C.3     1  UNL1        0.1137
     12 C         141.2082  144.6048  156.8800 C.3     1  UNL1        0.0318
     13 O         140.8058  145.5848  158.1967 O.3     1  UNL1       -0.3844
     14 C         140.8676  144.7233  159.6492 C.3     1  UNL1        0.0350
     15 C         140.7125  144.6784  161.1405 C.3     1  UNL1        0.0418
     16 C         140.3091  146.0835  161.4766 C.3     1  UNL1        0.0061
     17 C         140.7369  144.0082  162.4822 C.2     1  UNL1        0.0767
     18 N         140.3444  145.1150  163.4155 N.2     1  UNL1       -0.0887
     19 C         140.9361  142.8453  163.4086 C.3     1  UNL1        0.0686
     20 C         140.6322  143.4346  164.7541 C.3     1  UNL1        0.0087
     21 C         141.2705  141.4202  163.7362 C.3     1  UNL1        0.1435
     22 O         141.1154  141.3753  165.2275 O.3     1  UNL1       -0.3816
     23 C         141.6739  140.0151  163.4001 C.3     1  UNL1        0.1496
     24 C         141.4641  140.1870  164.8753 C.3     1  UNL1        0.0356
     25 O         141.9241  138.7356  164.1418 O.3     1  UNL1       -0.3808
     26 H         140.8385  145.8588  157.2668 H       1  UNL1        0.2103
     27 H         140.8512  142.2505  165.5515 H       1  UNL1        0.2105
     28 H         141.7807  138.8786  165.0905 H       1  UNL1        0.2105
     29 C         141.0912  136.9137  163.8160 C.3     1  UNL1        0.0039
     30 C         142.2656  137.7455  163.3932 C.3     1  UNL1        0.0462
     31 O         142.6058  139.6078  156.0164 O.3     1  UNL1       -0.3323
     32 C         141.5338  138.8873  155.2538 C.3     1  UNL1        0.2375
     33 C         141.8949  137.7477  154.3477 C.3     1  UNL1        0.0910
     34 C         140.8229  137.0272  153.5850 C.3     1  UNL1        0.1246
     35 C         140.1699  136.0423  152.6611 C.3     1  UNL1        0.0324
     36 C         139.3898  137.4463  153.7284 C.3     1  UNL1        0.1623
     37 O         138.3178  136.7258  152.9657 O.3     1  UNL1       -0.3796
     38 C         139.0287  138.5859  154.6345 C.3     1  UNL1        0.1468
     39 C         137.5956  139.0050  154.7778 C.3     1  UNL1        0.0348
     40 O         140.1007  139.3064  155.3971 O.3     1  UNL1       -0.3304
     41 H         138.7184  136.0218  152.4320 H       1  UNL1        0.2105
     42 O         142.0292  136.2660  153.1208 O.3     1  UNL1       -0.3532
     43 C         142.2544  134.8591  153.5894 C.3     1  UNL1        0.1740
     44 O         141.5396  143.6975  156.0289 O.3     1  UNL1       -0.3287
     45 C         140.3031  144.4118  155.5697 C.3     1  UNL1        0.2643
     46 O         140.2564  145.9110  155.5774 O.3     1  UNL1       -0.3311
     47 C         139.0199  146.6252  155.1183 C.3     1  UNL1        0.1194
     48 C         138.9732  148.1246  155.1260 C.3     1  UNL1        0.0322
     49 C         137.8300  145.8403  154.6514 C.3     1  UNL1        0.0482
     50 C         137.8767  144.3410  154.6436 C.3     1  UNL1        0.0921
     51 C         139.1132  143.6267  155.1028 C.3     1  UNL1        0.1815
     52 O         139.1599  142.1275  155.0951 O.3     1  UNL1       -0.3783
     53 H         140.0241  141.8293  155.4194 H       1  UNL1        0.2106
     54 N         136.6868  143.5561  154.1767 N.3     1  UNL1       -0.2692
     55 C         136.2285  143.6646  152.7526 C.3     1  UNL1        0.0897
     56 C         135.9551  142.6626  155.1340 C.3     1  UNL1        0.0897
     57 O         140.2474  144.8542  164.8894 O.2     1  UNL1       -0.3437
     58 C         138.9028  144.7589  165.5473 C.3     1  UNL1        0.3886
     59 O         137.9264  143.7076  165.1095 O.3     1  UNL1       -0.3114
     60 C         137.3183  143.7726  163.7398 C.3     1  UNL1        0.1781
     61 C         137.4477  142.6061  162.8058 C.3     1  UNL1        0.1744
     62 O         137.6704  142.8395  161.3409 O.3     1  UNL1       -0.3484
     63 C         138.4045  141.8194  160.5219 C.3     1  UNL1        0.1742
@<TRIPOS>BOND
     1    29    30    1
     2    30     1    1
     3     1     2    1
     4     2     3    1
     5     3     4    2
     6     3     5    1
     7     5     6    1
     8     5     7    1
     9     7    31    1
    10    31    32    1
    11    32    33    1
    12    33    34    1
    13    34    35    1
    14    34    42    1
    15    42    43    1
    16    34    36    1
    17    36    37    1
    18    36    38    1
    19    38    39    1
    20    38    40    1
    21     7     8    1
    22     8     9    1
    23     8    10    1
    24    10    44    1
    25    44    45    1
    26    45    46    1
    27    46    47    1
    28    47    48    1
    29    47    49    1
    30    49    50    1
    31    50    54    1
    32    54    55    1
    33    54    56    1
    34    50    51    1
    35    51    52    1
    36    10    11    1
    37    11    12    1
    38    11    13    1
    39    11    14    1
    40    14    15    1
    41    15    16    1
    42    15    17    1
    43    17    18    2
    44    18    57    1
    45    57    58    1
    46    58    59    1
    47    59    60    1
    48    60    61    1
    49    61    62    1
    50    62    63    1
    51    17    19    1
    52    19    20    1
    53    19    21    1
    54    21    22    1
    55    21    23    1
    56    23    24    1
    57    23    25    1
    58    23     1    1
    59    40    32    1
    60    51    45    1
    61    37    41    1
    62    52    53    1
    63    13    26    1
    64    22    27    1
    65    25    28    1
@<TRIPOS>MOLECULE
*****
 63 65 0 0 0
SMALL
GASTEIGER

@<TRIPOS>ATOM
      1 C         139.4959  137.3492  153.9499 C.3     1  UNL1        0.1953
      2 O         140.5924  137.0361  154.9245 O.3     1  UNL1       -0.4497
      3 C         141.5489  137.3618  156.0330 C.2     1  UNL1        0.3188
      4 O         142.2891  136.0714  156.2252 O.2     1  UNL1       -0.2500
      5 C         142.1762  138.2619  157.0560 C.3     1  UNL1        0.1263
      6 C         142.9767  137.2395  157.4251 C.3     1  UNL1        0.0142
      7 C         142.3498  139.5580  157.7909 C.3     1  UNL1        0.1306
      8 C         142.0354  140.9935  158.0920 C.3     1  UNL1        0.0575
      9 C         142.9920  141.3192  159.2005 C.3     1  UNL1        0.0051
     10 C         141.2953  142.2839  157.8998 C.3     1  UNL1        0.1444
     11 C         140.2761  143.1739  157.2523 C.3     1  UNL1        0.1137
     12 C         141.0308  143.8972  158.3280 C.3     1  UNL1        0.0318
     13 O         139.8083  144.5923  157.3908 O.3     1  UNL1       -0.3844
     14 C         139.1796  143.4869  156.2777 C.3     1  UNL1        0.0350
     15 C         138.2230  143.1612  155.1692 C.3     1  UNL1        0.0418
     16 C         137.4829  144.4517  154.9770 C.3     1  UNL1        0.0061
     17 C         137.5958  142.2611  154.1462 C.2     1  UNL1        0.0767
     18 N         136.5765  143.1511  153.4987 N.2     1  UNL1       -0.0887
     19 C         137.4222  140.9650  153.4114 C.3     1  UNL1        0.0686
     20 C         136.3257  141.2781  152.4368 C.3     1  UNL1        0.0087
     21 C         137.7366  139.5295  153.1103 C.3     1  UNL1        0.1435
     22 O         136.7800  139.2038  152.0017 O.3     1  UNL1       -0.3816
     23 C         138.4767  138.2391  153.3025 C.3     1  UNL1        0.1496
     24 C         137.4502  138.1253  152.2147 C.3     1  UNL1        0.0356
     25 O         138.4667  136.8655  152.6999 O.3     1  UNL1       -0.3808
     26 H         140.3136  145.0324  158.0920 H       1  UNL1        0.2103
     27 H         136.2441  139.9860  151.7968 H       1  UNL1        0.2105
     28 H         137.7947  136.8236  152.0017 H       1  UNL1        0.2105
     29 C         140.2852  135.6712  152.1303 C.3     1  UNL1        0.0039
     30 C         139.3223  136.0531  153.2151 C.3     1  UNL1        0.0462
     31 O         143.4463  139.2449  158.7654 O.3     1  UNL1       -0.3323
     32 C         143.1128  138.9280  160.1931 C.3     1  UNL1        0.2375
     33 C         141.7745  138.3454  160.5390 C.3     1  UNL1        0.0910
     34 C         141.4410  138.0284  161.9668 C.3     1  UNL1        0.1246
     35 C         140.6649  137.5630  163.1630 C.3     1  UNL1        0.0324
     36 C         142.4458  138.2940  163.0484 C.3     1  UNL1        0.1623
     37 O         142.1122  137.9769  164.4761 O.3     1  UNL1       -0.3796
     38 C         143.7840  138.8765  162.7024 C.3     1  UNL1        0.1468
     39 C         144.7887  139.1421  163.7841 C.3     1  UNL1        0.0348
     40 O         144.1175  139.1935  161.2748 O.3     1  UNL1       -0.3304
     41 H         141.2155  137.6101  164.5248 H       1  UNL1        0.2105
     42 O         140.1668  137.6012  161.3005 O.3     1  UNL1       -0.3532
     43 C         138.8510  138.1294  161.7899 C.3     1  UNL1        0.1740
     44 O         141.9225  143.1840  158.9227 O.3     1  UNL1       -0.3287
     45 C         141.3322  143.2818  160.2983 C.3     1  UNL1        0.2643
     46 O         139.8679  143.0312  160.5056 O.3     1  UNL1       -0.3311
     47 C         139.2777  143.1291  161.8811 C.3     1  UNL1        0.1194
     48 C         137.8133  142.8785  162.0885 C.3     1  UNL1        0.0322
     49 C         140.1517  143.4776  163.0492 C.3     1  UNL1        0.0482
     50 C         141.6160  143.7282  162.8419 C.3     1  UNL1        0.0921
     51 C         142.2063  143.6304  161.4664 C.3     1  UNL1        0.1815
     52 O         143.6706  143.8809  161.2590 O.3     1  UNL1       -0.3783
     53 H         143.8863  143.7778  160.3189 H       1  UNL1        0.2106
     54 N         142.4901  144.0767  164.0101 N.3     1  UNL1       -0.2692
     55 C         142.7140  143.0754  165.1043 C.3     1  UNL1        0.0897
     56 C         143.1401  145.4265  164.0841 C.3     1  UNL1        0.0897
     57 O         135.7113  142.6206  152.3942 O.2     1  UNL1       -0.3437
     58 C         134.2943  142.2191  152.6787 C.3     1  UNL1        0.3886
     59 O         134.0117  141.0391  153.5607 O.3     1  UNL1       -0.3114
     60 C         133.7885  141.2378  155.0306 C.3     1  UNL1        0.1781
     61 C         134.6610  140.5296  156.0241 C.3     1  UNL1        0.1744
     62 O         134.3426  139.1219  156.4326 O.3     1  UNL1       -0.3484
     63 C         132.9412  138.7519  156.8190 C.3     1  UNL1        0.1742
@<TRIPOS>BOND
     1    29    30    1
     2    30     1    1
     3     1     2    1
     4     2     3    1
     5     3     4    2
     6     3     5    1
     7     5     6    1
     8     5     7    1
     9     7    31    1
    10    31    32    1
    11    32    33    1
    12    33    34    1
    13    34    35    1
    14    34    42    1
    15    42    43    1
    16    34    36    1
    17    36    37    1
    18    36    38    1
    19    38    39    1
    20    38    40    1
    21     7     8    1
    22     8     9    1
    23     8    10    1
    24    10    44    1
    25    44    45    1
    26    45    46    1
    27    46    47    1
    28    47    48    1
    29    47    49    1
    30    49    50    1
    31    50    54    1
    32    54    55    1
    33    54    56    1
    34    50    51    1
    35    51    52    1
    36    10    11    1
    37    11    12    1
    38    11    13    1
    39    11    14    1
    40    14    15    1
    41    15    16    1
    42    15    17    1
    43    17    18    2
    44    18    57    1
    45    57    58    1
    46    58    59    1
    47    59    60    1
    48    60    61    1
    49    61    62    1
    50    62    63    1
    51    17    19    1
    52    19    20    1
    53    19    21    1
    54    21    22    1
    55    21    23    1
    56    23    24    1
    57    23    25    1
    58    23     1    1
    59    40    32    1
    60    51    45    1
    61    37    41    1
    62    52    53    1
    63    13    26    1
    64    22    27    1
    65    25    28    1
@<TRIPOS>MOLECULE
*****
 63 65 0 0 0
SMALL
GASTEIGER

@<TRIPOS>ATOM
      1 C         138.5865  140.0045  153.8620 C.3     1  UNL1        0.1953
      2 O         138.5633  141.1896  154.7812 O.3     1  UNL1       -0.4497
      3 C         138.9456  141.9492  156.0168 C.2     1  UNL1        0.3188
      4 O         138.2045  143.2434  155.8558 O.2     1  UNL1       -0.2500
      5 C         139.6578  142.1329  157.3242 C.3     1  UNL1        0.1263
      6 C         139.1072  143.3618  157.4204 C.3     1  UNL1        0.0142
      7 C         140.5588  141.7043  158.4442 C.3     1  UNL1        0.1306
      8 C         141.4702  140.7481  159.1552 C.3     1  UNL1        0.0575
      9 C         141.8525  141.5078  160.3908 C.3     1  UNL1        0.0051
     10 C         142.2113  139.4541  159.3162 C.3     1  UNL1        0.1444
     11 C         142.6355  138.0782  158.8955 C.3     1  UNL1        0.1137
     12 C         143.2506  138.4639  160.2080 C.3     1  UNL1        0.0318
     13 O         143.5091  136.9841  159.4337 O.3     1  UNL1       -0.3844
     14 C         142.6587  136.8931  157.9762 C.3     1  UNL1        0.0350
     15 C         142.2763  136.1335  156.7407 C.3     1  UNL1        0.0418
     16 C         143.0174  134.8393  156.9017 C.3     1  UNL1        0.0061
     17 C         141.5641  135.9497  155.4333 C.2     1  UNL1        0.0767
     18 N         141.9883  134.5739  155.0125 N.2     1  UNL1       -0.0887
     19 C         140.6631  136.3784  154.3132 C.3     1  UNL1        0.0686
     20 C         140.6863  135.1933  153.3940 C.3     1  UNL1        0.0087
     21 C         139.7518  137.3345  153.6023 C.3     1  UNL1        0.1435
     22 O         139.3694  136.5749  152.3667 O.3     1  UNL1       -0.3816
     23 C         139.0107  138.6286  153.4412 C.3     1  UNL1        0.1496
     24 C         138.7589  137.7055  152.2861 C.3     1  UNL1        0.0356
     25 O         138.0856  139.2482  152.4362 O.3     1  UNL1       -0.3808
     26 H         143.8913  137.2627  160.2806 H       1  UNL1        0.2103
     27 H         139.8037  135.7075  152.3730 H       1  UNL1        0.2105
     28 H         137.9426  138.6289  151.7034 H       1  UNL1        0.2105
     29 C         136.1965  140.3559  152.9057 C.3     1  UNL1        0.0039
     30 C         137.6855  140.4331  152.7419 C.3     1  UNL1        0.0462
     31 O         140.5356  142.8894  159.3635 O.3     1  UNL1       -0.3323
     32 C         139.7479  142.8340  160.6388 C.3     1  UNL1        0.2375
     33 C         138.8259  141.6802  160.9012 C.3     1  UNL1        0.0910
     34 C         138.0382  141.6247  162.1766 C.3     1  UNL1        0.1246
     35 C         137.0894  141.1279  163.2268 C.3     1  UNL1        0.0324
     36 C         138.1725  142.7230  163.1894 C.3     1  UNL1        0.1623
     37 O         137.3847  142.6675  164.4647 O.3     1  UNL1       -0.3796
     38 C         139.0945  143.8767  162.9269 C.3     1  UNL1        0.1468
     39 C         139.2287  144.9750  163.9398 C.3     1  UNL1        0.0348
     40 O         139.8821  143.9322  161.6517 O.3     1  UNL1       -0.3304
     41 H         136.8432  141.8628  164.4754 H       1  UNL1        0.2105
     42 O         137.5744  140.3540  161.5285 O.3     1  UNL1       -0.3532
     43 C         137.6687  140.1934  160.0401 C.3     1  UNL1        0.1740
     44 O         142.9234  139.6377  160.6235 O.3     1  UNL1       -0.3287
     45 C         142.2541  139.2378  161.9049 C.3     1  UNL1        0.2643
     46 O         140.8855  138.6245  161.8765 O.3     1  UNL1       -0.3311
     47 C         140.2162  138.2246  163.1580 C.3     1  UNL1        0.1194
     48 C         138.8475  137.6113  163.1296 C.3     1  UNL1        0.0322
     49 C         140.9154  138.4379  164.4677 C.3     1  UNL1        0.0482
     50 C         142.2840  139.0512  164.4961 C.3     1  UNL1        0.0921
     51 C         142.9534  139.4511  163.2148 C.3     1  UNL1        0.1815
     52 O         144.3220  140.0644  163.2430 O.3     1  UNL1       -0.3783
     53 H         144.6064  140.2622  162.3370 H       1  UNL1        0.2106
     54 N         142.9832  139.2645  165.8059 N.3     1  UNL1       -0.2692
     55 C         142.8242  140.5639  166.5381 C.3     1  UNL1        0.0897
     56 C         143.8414  138.1783  166.3835 C.3     1  UNL1        0.0897
     57 O         141.4839  133.9948  153.7241 O.2     1  UNL1       -0.3437
     58 C         142.0007  132.6711  153.2436 C.3     1  UNL1        0.3886
     59 O         143.3488  132.1862  153.6880 O.3     1  UNL1       -0.3114
     60 C         143.5314  130.7575  154.1070 C.3     1  UNL1        0.1781
     61 C         144.2548  130.4362  155.3811 C.3     1  UNL1        0.1744
     62 O         145.2551  131.4041  155.9401 O.3     1  UNL1       -0.3484
     63 C         145.1447  131.8572  157.3658 C.3     1  UNL1        0.1742
@<TRIPOS>BOND
     1    29    30    1
     2    30     1    1
     3     1     2    1
     4     2     3    1
     5     3     4    2
     6     3     5    1
     7     5     6    1
     8     5     7    1
     9     7    31    1
    10    31    32    1
    11    32    33    1
    12    33    34    1
    13    34    35    1
    14    34    42    1
    15    42    43    1
    16    34    36    1
    17    36    37    1
    18    36    38    1
    19    38    39    1
    20    38    40    1
    21     7     8    1
    22     8     9    1
    23     8    10    1
    24    10    44    1
    25    44    45    1
    26    45    46    1
    27    46    47    1
    28    47    48    1
    29    47    49    1
    30    49    50    1
    31    50    54    1
    32    54    55    1
    33    54    56    1
    34    50    51    1
    35    51    52    1
    36    10    11    1
    37    11    12    1
    38    11    13    1
    39    11    14    1
    40    14    15    1
    41    15    16    1
    42    15    17    1
    43    17    18    2
    44    18    57    1
    45    57    58    1
    46    58    59    1
    47    59    60    1
    48    60    61    1
    49    61    62    1
    50    62    63    1
    51    17    19    1
    52    19    20    1
    53    19    21    1
    54    21    22    1
    55    21    23    1
    56    23    24    1
    57    23    25    1
    58    23     1    1
    59    40    32    1
    60    51    45    1
    61    37    41    1
    62    52    53    1
    63    13    26    1
    64    22    27    1
    65    25    28    1
