@<TRIPOS>MOLECULE
*****
 38 41 0 0 0
SMALL
GASTEIGER

@<TRIPOS>ATOM
      1 S         139.1462  140.0734  164.9472 S.O2    1  UNL1        0.0134
      2 O         137.8022  140.1875  165.0015 O.2     1  UNL1       -0.1683
      3 O         140.6202  139.9355  164.7051 O.2     1  UNL1       -0.1683
      4 C         139.3965  140.1558  166.4238 C.3     1  UNL1        0.1845
      5 C         139.9931  141.4907  166.0890 C.3     1  UNL1        0.0313
      6 C         140.4764  142.1154  167.3642 C.3     1  UNL1        0.0024
      7 C         140.1785  141.1666  168.4872 C.3     1  UNL1        0.0048
      8 C         139.8190  140.1221  169.5020 C.3     1  UNL1        0.0172
      9 C         140.1334  140.3452  170.9516 C.3     1  UNL1        0.0686
     10 N         140.8072  141.6128  171.3864 N.3     1  UNL1       -0.2975
     11 C         141.1667  142.6573  170.3717 C.3     1  UNL1        0.0686
     12 C         140.8524  142.4342  168.9221 C.3     1  UNL1        0.0172
     13 C         139.5111  139.9554  167.9060 C.3     1  UNL1        0.0314
     14 H         141.6745  141.3413  171.8495 H       1  UNL1        0.1232
     15 C         138.7476  138.8037  166.4500 C.2     1  UNL1        0.2644
     16 O         139.1301  137.7056  165.7642 O.2     1  UNL1       -0.2713
     17 N         137.5389  138.5682  167.3065 N.am    1  UNL1       -0.1956
     18 O         136.8901  137.2160  167.3327 O.3     1  UNL1       -0.2951
     19 H         137.1715  139.3011  167.8515 H       1  UNL1        0.1823
     20 H         137.3728  136.6144  166.7445 H       1  UNL1        0.2414
     21 C         138.3955  139.8263  160.5172 C.ar    1  UNL1        0.1454
     22 C         137.5516  140.7247  161.3719 C.ar    1  UNL1        0.0388
     23 C         137.8019  140.8071  162.8486 C.ar    1  UNL1        0.0215
     24 C         138.8960  139.9910  163.4705 C.ar    1  UNL1        0.1063
     25 C         139.7399  139.0926  162.6158 C.ar    1  UNL1        0.0215
     26 C         139.4896  139.0102  161.1391 C.ar    1  UNL1        0.0388
     27 O         138.1452  139.7440  159.0405 O.3     1  UNL1       -0.4535
     28 C         138.4201  143.4492  156.5016 C.ar    1  UNL1        0.0536
     29 C         137.2953  142.4790  156.2931 C.ar    1  UNL1        0.0076
     30 C         137.2037  141.2439  157.1394 C.ar    1  UNL1        0.0376
     31 C         138.2369  140.9791  158.1942 C.ar    1  UNL1        0.1453
     32 C         139.3616  141.9494  158.4027 C.ar    1  UNL1        0.0376
     33 C         139.4532  143.1844  157.5563 C.ar    1  UNL1        0.0076
     34 C         139.8585  146.7409  154.8146 C.3     1  UNL1        0.1109
     35 N         139.7668  145.5058  155.6608 N.am    1  UNL1       -0.2992
     36 C         138.5117  144.6843  155.6554 C.2     1  UNL1        0.2459
     37 O         137.3483  145.0979  154.8035 O.2     1  UNL1       -0.2701
     38 H         140.5303  145.2343  156.2198 H       1  UNL1        0.1498
@<TRIPOS>BOND
     1    34    35    1
     2    35    36   am
     3    36    37    2
     4    36    28    1
     5    28    29   ar
     6    29    30   ar
     7    30    31   ar
     8    31    27    1
     9    27    21    1
    10    21    22   ar
    11    22    23   ar
    12    23    24   ar
    13    24     1    1
    14     1     2    2
    15     1     3    2
    16     1     4    1
    17     4    15    1
    18    15    16    2
    19    15    17   am
    20    17    18    1
    21     4     5    1
    22     5     6    1
    23     6     7    1
    24     7     8    1
    25     8     9    1
    26     9    10    1
    27    10    11    1
    28    11    12    1
    29     7    13    1
    30    24    25   ar
    31    25    26   ar
    32    31    32   ar
    33    32    33   ar
    34    33    28   ar
    35    26    21   ar
    36    13     4    1
    37    12     7    1
    38    35    38    1
    39    17    19    1
    40    18    20    1
    41    10    14    1
@<TRIPOS>MOLECULE
*****
 38 41 0 0 0
SMALL
GASTEIGER

@<TRIPOS>ATOM
      1 S         141.5882  139.4442  164.8835 S.O2    1  UNL1        0.0134
      2 O         141.4705  140.7159  164.4460 O.2     1  UNL1       -0.1683
      3 O         141.7774  137.9903  165.2010 O.2     1  UNL1       -0.1683
      4 C         141.1212  139.6899  166.2876 C.3     1  UNL1        0.1845
      5 C         142.5875  139.7186  166.6029 C.3     1  UNL1        0.0313
      6 C         142.7405  139.9653  168.0745 C.3     1  UNL1        0.0024
      7 C         141.3687  140.0892  168.6689 C.3     1  UNL1        0.0048
      8 C         139.9412  140.1894  169.1183 C.3     1  UNL1        0.0172
      9 C         139.6257  140.4396  170.5633 C.3     1  UNL1        0.0686
     10 N         140.7377  140.5894  171.5587 N.3     1  UNL1       -0.2975
     11 C         142.1653  140.4892  171.1092 C.3     1  UNL1        0.0686
     12 C         142.4808  140.2390  169.6643 C.3     1  UNL1        0.0172
     13 C         140.3680  139.9190  167.5645 C.3     1  UNL1        0.0314
     14 H         140.6000  139.8666  172.2651 H       1  UNL1        0.1232
     15 C         139.7526  139.6099  165.6790 C.2     1  UNL1        0.2644
     16 O         139.1179  138.4983  165.2501 O.2     1  UNL1       -0.2713
     17 N         138.9398  140.8570  165.4941 N.am    1  UNL1       -0.1956
     18 O         137.5712  140.7769  164.8854 O.3     1  UNL1       -0.2951
     19 H         139.3046  141.7281  165.7722 H       1  UNL1        0.1823
     20 H         137.3667  139.8534  164.6701 H       1  UNL1        0.2414
     21 C         142.9894  138.7069  160.6713 C.ar    1  UNL1        0.1454
     22 C         143.2895  140.0137  161.3437 C.ar    1  UNL1        0.0388
     23 C         142.8224  140.2594  162.7477 C.ar    1  UNL1        0.0215
     24 C         142.0553  139.1984  163.4795 C.ar    1  UNL1        0.1063
     25 C         141.7552  137.8915  162.8072 C.ar    1  UNL1        0.0215
     26 C         142.2222  137.6458  161.4031 C.ar    1  UNL1        0.0388
     27 O         143.4564  138.4611  159.2673 O.3     1  UNL1       -0.4535
     28 C         140.4757  137.4658  156.0462 C.ar    1  UNL1        0.0536
     29 C         140.2711  138.6752  156.9097 C.ar    1  UNL1        0.0076
     30 C         141.2646  139.0069  157.9834 C.ar    1  UNL1        0.0376
     31 C         142.4628  138.1293  158.1935 C.ar    1  UNL1        0.1453
     32 C         142.6675  136.9200  157.3301 C.ar    1  UNL1        0.0376
     33 C         141.6739  136.5882  156.2564 C.ar    1  UNL1        0.0076
     34 C         138.9630  136.4649  152.5164 C.3     1  UNL1        0.1109
     35 N         139.9565  136.7967  153.5901 N.am    1  UNL1       -0.2992
     36 C         139.4822  137.1340  154.9726 C.2     1  UNL1        0.2459
     37 O         138.0142  137.1396  155.2813 O.2     1  UNL1       -0.2701
     38 H         140.9199  136.7931  153.3875 H       1  UNL1        0.1498
@<TRIPOS>BOND
     1    34    35    1
     2    35    36   am
     3    36    37    2
     4    36    28    1
     5    28    29   ar
     6    29    30   ar
     7    30    31   ar
     8    31    27    1
     9    27    21    1
    10    21    22   ar
    11    22    23   ar
    12    23    24   ar
    13    24     1    1
    14     1     2    2
    15     1     3    2
    16     1     4    1
    17     4    15    1
    18    15    16    2
    19    15    17   am
    20    17    18    1
    21     4     5    1
    22     5     6    1
    23     6     7    1
    24     7     8    1
    25     8     9    1
    26     9    10    1
    27    10    11    1
    28    11    12    1
    29     7    13    1
    30    24    25   ar
    31    25    26   ar
    32    31    32   ar
    33    32    33   ar
    34    33    28   ar
    35    26    21   ar
    36    13     4    1
    37    12     7    1
    38    35    38    1
    39    17    19    1
    40    18    20    1
    41    10    14    1
@<TRIPOS>MOLECULE
*****
 38 41 0 0 0
SMALL
GASTEIGER

@<TRIPOS>ATOM
      1 S         139.9259  141.2678  164.6998 S.O2    1  UNL1        0.0134
      2 O         141.2244  141.3170  164.3339 O.2     1  UNL1       -0.1683
      3 O         138.4483  141.1593  164.9348 O.2     1  UNL1       -0.1683
      4 C         140.1201  141.7025  166.1222 C.3     1  UNL1        0.1845
      5 C         139.8453  140.2613  166.4348 C.3     1  UNL1        0.0313
      6 C         139.9187  140.0877  167.9229 C.3     1  UNL1        0.0024
      7 C         140.2389  141.4215  168.5301 C.3     1  UNL1        0.0048
      8 C         140.5601  142.8123  168.9909 C.3     1  UNL1        0.0172
      9 C         140.7266  143.0979  170.4540 C.3     1  UNL1        0.0686
     10 N         140.5718  141.9927  171.4562 N.3     1  UNL1       -0.2975
     11 C         140.2505  140.6019  170.9954 C.3     1  UNL1        0.0686
     12 C         140.0841  140.3163  169.5324 C.3     1  UNL1        0.0172
     13 C         140.3634  142.4195  167.4172 C.3     1  UNL1        0.0314
     14 H         139.8236  142.2730  172.0904 H       1  UNL1        0.1232
     15 C         140.3544  143.0527  165.5123 C.2     1  UNL1        0.2644
     16 O         141.5442  143.6578  165.3109 O.2     1  UNL1       -0.2713
     17 N         139.1909  143.8799  165.0520 N.am    1  UNL1       -0.1956
     18 O         139.4252  145.2301  164.4421 O.3     1  UNL1       -0.2951
     19 H         138.2734  143.5367  165.1502 H       1  UNL1        0.1823
     20 H         140.3774  145.4141  164.4201 H       1  UNL1        0.2414
     21 C         139.3431  139.9637  160.4325 C.ar    1  UNL1        0.1454
     22 C         138.8401  139.1048  161.5546 C.ar    1  UNL1        0.0388
     23 C         139.0344  139.5395  162.9770 C.ar    1  UNL1        0.0215
     24 C         139.7316  140.8331  163.2774 C.ar    1  UNL1        0.1063
     25 C         140.2346  141.6921  162.1553 C.ar    1  UNL1        0.0215
     26 C         140.0404  141.2574  160.7329 C.ar    1  UNL1        0.0388
     27 O         139.1488  139.5290  159.0101 O.3     1  UNL1       -0.4535
     28 C         142.1569  136.8107  157.0573 C.ar    1  UNL1        0.0536
     29 C         142.5324  137.5854  158.2857 C.ar    1  UNL1        0.0076
     30 C         141.5297  138.4915  158.9366 C.ar    1  UNL1        0.0376
     31 C         140.1515  138.6228  158.3592 C.ar    1  UNL1        0.1453
     32 C         139.7760  137.8482  157.1308 C.ar    1  UNL1        0.0376
     33 C         140.7787  136.9421  156.4799 C.ar    1  UNL1        0.0076
     34 C         143.9375  133.5155  155.7456 C.3     1  UNL1        0.1109
     35 N         142.9349  134.4216  156.3965 N.am    1  UNL1       -0.2992
     36 C         143.1594  135.9047  156.4064 C.2     1  UNL1        0.2459
     37 O         144.3867  136.4816  155.7652 O.2     1  UNL1       -0.2701
     38 H         142.1294  134.0429  156.8173 H       1  UNL1        0.1498
@<TRIPOS>BOND
     1    34    35    1
     2    35    36   am
     3    36    37    2
     4    36    28    1
     5    28    29   ar
     6    29    30   ar
     7    30    31   ar
     8    31    27    1
     9    27    21    1
    10    21    22   ar
    11    22    23   ar
    12    23    24   ar
    13    24     1    1
    14     1     2    2
    15     1     3    2
    16     1     4    1
    17     4    15    1
    18    15    16    2
    19    15    17   am
    20    17    18    1
    21     4     5    1
    22     5     6    1
    23     6     7    1
    24     7     8    1
    25     8     9    1
    26     9    10    1
    27    10    11    1
    28    11    12    1
    29     7    13    1
    30    24    25   ar
    31    25    26   ar
    32    31    32   ar
    33    32    33   ar
    34    33    28   ar
    35    26    21   ar
    36    13     4    1
    37    12     7    1
    38    35    38    1
    39    17    19    1
    40    18    20    1
    41    10    14    1
@<TRIPOS>MOLECULE
*****
 38 41 0 0 0
SMALL
GASTEIGER

@<TRIPOS>ATOM
      1 S         140.1106  141.1464  164.3218 S.O2    1  UNL1        0.0134
      2 O         138.7748  141.0454  164.1546 O.2     1  UNL1       -0.1683
      3 O         141.6045  141.2831  164.3263 O.2     1  UNL1       -0.1683
      4 C         140.1237  140.9549  165.8094 C.3     1  UNL1        0.1845
      5 C         140.2793  142.4465  165.8421 C.3     1  UNL1        0.0313
      6 C         140.3554  142.8732  167.2781 C.3     1  UNL1        0.0024
      7 C         140.2469  141.6454  168.1330 C.3     1  UNL1        0.0048
      8 C         140.1269  140.3358  168.8543 C.3     1  UNL1        0.0172
      9 C         140.1564  140.2999  170.3536 C.3     1  UNL1        0.0686
     10 N         140.3059  141.5737  171.1315 N.3     1  UNL1       -0.2975
     11 C         140.4259  142.8834  170.4101 C.3     1  UNL1        0.0686
     12 C         140.3964  142.9192  168.9109 C.3     1  UNL1        0.0172
     13 C         140.1037  140.4598  167.2253 C.3     1  UNL1        0.0314
     14 H         141.1456  141.4736  171.7017 H       1  UNL1        0.1232
     15 C         139.9654  139.5034  165.4659 C.2     1  UNL1        0.2644
     16 O         140.8703  138.7098  164.8544 O.2     1  UNL1       -0.2713
     17 N         138.6927  138.7864  165.8066 N.am    1  UNL1       -0.1956
     18 O         138.5344  137.3349  165.4630 O.3     1  UNL1       -0.2951
     19 H         137.9611  139.2685  166.2557 H       1  UNL1        0.1823
     20 H         139.3407  137.0158  165.0281 H       1  UNL1        0.2414
     21 C         140.0714  141.7212  159.8589 C.ar    1  UNL1        0.1454
     22 C         141.3571  141.4031  160.5628 C.ar    1  UNL1        0.0388
     23 C         141.3702  141.2115  162.0505 C.ar    1  UNL1        0.0215
     24 C         140.0976  141.3380  162.8341 C.ar    1  UNL1        0.1063
     25 C         138.8118  141.6561  162.1302 C.ar    1  UNL1        0.0215
     26 C         138.7987  141.8477  160.6426 C.ar    1  UNL1        0.0388
     27 O         140.0584  141.9128  158.3712 O.3     1  UNL1       -0.4535
     28 C         139.5358  146.0325  156.6377 C.ar    1  UNL1        0.0536
     29 C         140.2272  145.8562  157.9571 C.ar    1  UNL1        0.0076
     30 C         140.4014  144.4830  158.5349 C.ar    1  UNL1        0.0376
     31 C         139.8841  143.2861  157.7933 C.ar    1  UNL1        0.1453
     32 C         139.1927  143.4624  156.4739 C.ar    1  UNL1        0.0376
     33 C         139.0186  144.8356  155.8961 C.ar    1  UNL1        0.0076
     34 C         138.4503  149.8308  156.2569 C.3     1  UNL1        0.1109
     35 N         138.6245  148.4575  156.8347 N.am    1  UNL1       -0.2992
     36 C         139.3616  147.4057  156.0598 C.2     1  UNL1        0.2459
     37 O         139.9244  147.7271  154.7070 O.2     1  UNL1       -0.2701
     38 H         138.2551  148.2466  157.7225 H       1  UNL1        0.1498
@<TRIPOS>BOND
     1    34    35    1
     2    35    36   am
     3    36    37    2
     4    36    28    1
     5    28    29   ar
     6    29    30   ar
     7    30    31   ar
     8    31    27    1
     9    27    21    1
    10    21    22   ar
    11    22    23   ar
    12    23    24   ar
    13    24     1    1
    14     1     2    2
    15     1     3    2
    16     1     4    1
    17     4    15    1
    18    15    16    2
    19    15    17   am
    20    17    18    1
    21     4     5    1
    22     5     6    1
    23     6     7    1
    24     7     8    1
    25     8     9    1
    26     9    10    1
    27    10    11    1
    28    11    12    1
    29     7    13    1
    30    24    25   ar
    31    25    26   ar
    32    31    32   ar
    33    32    33   ar
    34    33    28   ar
    35    26    21   ar
    36    13     4    1
    37    12     7    1
    38    35    38    1
    39    17    19    1
    40    18    20    1
    41    10    14    1
@<TRIPOS>MOLECULE
*****
 38 41 0 0 0
SMALL
GASTEIGER

@<TRIPOS>ATOM
      1 S         139.6135  141.6978  164.9909 S.O2    1  UNL1        0.0134
      2 O         138.2652  141.7538  164.9547 O.2     1  UNL1       -0.1683
      3 O         141.1076  141.6918  164.8569 O.2     1  UNL1       -0.1683
      4 C         139.7391  141.2353  166.4123 C.3     1  UNL1        0.1845
      5 C         140.2878  142.6117  166.6462 C.3     1  UNL1        0.0313
      6 C         140.6323  142.7322  168.1011 C.3     1  UNL1        0.0024
      7 C         140.2966  141.4303  168.7665 C.3     1  UNL1        0.0048
      8 C         139.9135  140.0782  169.2907 C.3     1  UNL1        0.0172
      9 C         140.0975  139.7578  170.7445 C.3     1  UNL1        0.0686
     10 N         140.6646  140.7896  171.6740 N.3     1  UNL1       -0.2975
     11 C         141.0477  142.1417  171.1497 C.3     1  UNL1        0.0686
     12 C         140.8637  142.4621  169.6959 C.3     1  UNL1        0.0172
     13 C         139.7446  140.5052  167.7227 C.3     1  UNL1        0.0314
     14 H         141.5052  140.3845  172.0859 H       1  UNL1        0.1232
     15 C         139.1643  139.9556  165.8813 C.2     1  UNL1        0.2644
     16 O         137.9896  139.3874  166.2274 O.2     1  UNL1       -0.2713
     17 N         139.9170  139.1652  164.8524 N.am    1  UNL1       -0.1956
     18 O         139.3420  137.8855  164.3215 O.3     1  UNL1       -0.2951
     19 H         140.7883  139.4863  164.5255 H       1  UNL1        0.1823
     20 H         138.4858  137.7157  164.7445 H       1  UNL1        0.2414
     21 C         139.2365  143.0854  160.7269 C.ar    1  UNL1        0.1454
     22 C         138.0064  142.8786  161.5598 C.ar    1  UNL1        0.0388
     23 C         138.1320  142.4160  162.9812 C.ar    1  UNL1        0.0215
     24 C         139.4878  142.1603  163.5696 C.ar    1  UNL1        0.1063
     25 C         140.7181  142.3671  162.7366 C.ar    1  UNL1        0.0215
     26 C         140.5924  142.8296  161.3153 C.ar    1  UNL1        0.0388
     27 O         139.1109  143.5479  159.3055 O.3     1  UNL1       -0.4535
     28 C         137.5119  140.7522  156.1626 C.ar    1  UNL1        0.0536
     29 C         138.4378  140.2365  157.2242 C.ar    1  UNL1        0.0076
     30 C         138.9707  141.1684  158.2718 C.ar    1  UNL1        0.0376
     31 C         138.5778  142.6160  158.2578 C.ar    1  UNL1        0.1453
     32 C         137.6520  143.1317  157.1963 C.ar    1  UNL1        0.0376
     33 C         137.1191  142.1998  156.1487 C.ar    1  UNL1        0.0076
     34 C         137.0488  137.5252  153.8994 C.3     1  UNL1        0.1109
     35 N         137.5817  138.4571  154.9471 N.am    1  UNL1       -0.2992
     36 C         136.9789  139.8204  155.1150 C.2     1  UNL1        0.2459
     37 O         135.8431  140.2517  154.2352 O.2     1  UNL1       -0.2701
     38 H         138.3272  138.1740  155.5244 H       1  UNL1        0.1498
@<TRIPOS>BOND
     1    34    35    1
     2    35    36   am
     3    36    37    2
     4    36    28    1
     5    28    29   ar
     6    29    30   ar
     7    30    31   ar
     8    31    27    1
     9    27    21    1
    10    21    22   ar
    11    22    23   ar
    12    23    24   ar
    13    24     1    1
    14     1     2    2
    15     1     3    2
    16     1     4    1
    17     4    15    1
    18    15    16    2
    19    15    17   am
    20    17    18    1
    21     4     5    1
    22     5     6    1
    23     6     7    1
    24     7     8    1
    25     8     9    1
    26     9    10    1
    27    10    11    1
    28    11    12    1
    29     7    13    1
    30    24    25   ar
    31    25    26   ar
    32    31    32   ar
    33    32    33   ar
    34    33    28   ar
    35    26    21   ar
    36    13     4    1
    37    12     7    1
    38    35    38    1
    39    17    19    1
    40    18    20    1
    41    10    14    1
@<TRIPOS>MOLECULE
*****
 38 41 0 0 0
SMALL
GASTEIGER

@<TRIPOS>ATOM
      1 S         141.8593  142.3711  164.2964 S.O2    1  UNL1        0.0134
      2 O         142.2944  143.6158  164.0069 O.2     1  UNL1       -0.1683
      3 O         141.3222  140.9782  164.4433 O.2     1  UNL1       -0.1683
      4 C         142.2664  142.3664  165.7401 C.3     1  UNL1        0.1845
      5 C         140.7922  142.4792  165.9933 C.3     1  UNL1        0.0313
      6 C         140.5786  142.5209  167.4774 C.3     1  UNL1        0.0024
      7 C         141.9208  142.4337  168.1416 C.3     1  UNL1        0.0048
      8 C         143.3247  142.3395  168.6614 C.3     1  UNL1        0.0172
      9 C         143.5791  142.3466  170.1396 C.3     1  UNL1        0.0686
     10 N         142.4296  142.4479  171.0980 N.3     1  UNL1       -0.2975
     11 C         141.0258  142.5421  170.5782 C.3     1  UNL1        0.0686
     12 C         140.7714  142.5350  169.0999 C.3     1  UNL1        0.0172
     13 C         142.9639  142.3382  167.0678 C.3     1  UNL1        0.0314
     14 H         142.5906  143.2811  171.6639 H       1  UNL1        0.1232
     15 C         143.6554  142.2545  165.1852 C.2     1  UNL1        0.2644
     16 O         144.6016  143.2172  165.1634 O.2     1  UNL1       -0.2713
     17 N         144.1167  140.9656  164.5720 N.am    1  UNL1       -0.1956
     18 O         145.5058  140.8538  164.0171 O.3     1  UNL1       -0.2951
     19 H         143.5076  140.1930  164.5336 H       1  UNL1        0.1823
     20 H         145.9695  141.6978  164.1339 H       1  UNL1        0.2414
     21 C         140.6380  142.3854  159.9654 C.ar    1  UNL1        0.1454
     22 C         139.5921  142.4275  161.0397 C.ar    1  UNL1        0.0388
     23 C         139.9992  142.4227  162.4834 C.ar    1  UNL1        0.0215
     24 C         141.4522  142.3759  162.8528 C.ar    1  UNL1        0.1063
     25 C         142.4982  142.3337  161.7784 C.ar    1  UNL1        0.0215
     26 C         142.0911  142.3385  160.3348 C.ar    1  UNL1        0.0388
     27 O         140.2309  142.3901  158.5217 O.3     1  UNL1       -0.4535
     28 C         139.4990  146.2922  156.4030 C.ar    1  UNL1        0.0536
     29 C         138.9820  145.0119  155.8167 C.ar    1  UNL1        0.0076
     30 C         139.2260  143.7113  156.5230 C.ar    1  UNL1        0.0376
     31 C         139.9869  143.6909  157.8155 C.ar    1  UNL1        0.1453
     32 C         140.5039  144.9711  158.4018 C.ar    1  UNL1        0.0376
     33 C         140.2599  146.2717  157.6955 C.ar    1  UNL1        0.0076
     34 C         138.4334  150.0572  155.7405 C.3     1  UNL1        0.1109
     35 N         138.6774  148.7565  156.4466 N.am    1  UNL1       -0.2992
     36 C         139.2551  147.5928  155.6969 C.2     1  UNL1        0.2459
     37 O         139.5888  147.7299  154.2408 O.2     1  UNL1       -0.2701
     38 H         138.4584  148.6665  157.4022 H       1  UNL1        0.1498
@<TRIPOS>BOND
     1    34    35    1
     2    35    36   am
     3    36    37    2
     4    36    28    1
     5    28    29   ar
     6    29    30   ar
     7    30    31   ar
     8    31    27    1
     9    27    21    1
    10    21    22   ar
    11    22    23   ar
    12    23    24   ar
    13    24     1    1
    14     1     2    2
    15     1     3    2
    16     1     4    1
    17     4    15    1
    18    15    16    2
    19    15    17   am
    20    17    18    1
    21     4     5    1
    22     5     6    1
    23     6     7    1
    24     7     8    1
    25     8     9    1
    26     9    10    1
    27    10    11    1
    28    11    12    1
    29     7    13    1
    30    24    25   ar
    31    25    26   ar
    32    31    32   ar
    33    32    33   ar
    34    33    28   ar
    35    26    21   ar
    36    13     4    1
    37    12     7    1
    38    35    38    1
    39    17    19    1
    40    18    20    1
    41    10    14    1
@<TRIPOS>MOLECULE
*****
 38 41 0 0 0
SMALL
GASTEIGER

@<TRIPOS>ATOM
      1 S         141.0297  139.2623  164.3055 S.O2    1  UNL1        0.0134
      2 O         141.1275  140.5504  163.9134 O.2     1  UNL1       -0.1683
      3 O         140.9524  137.7871  164.5663 O.2     1  UNL1       -0.1683
      4 C         140.7670  139.5327  165.7574 C.3     1  UNL1        0.1845
      5 C         142.2341  139.2606  165.9115 C.3     1  UNL1        0.0313
      6 C         142.5830  139.4079  167.3629 C.3     1  UNL1        0.0024
      7 C         141.3315  139.7711  168.1059 C.3     1  UNL1        0.0048
      8 C         140.0060  140.1283  168.7105 C.3     1  UNL1        0.0172
      9 C         139.8962  140.3716  170.1865 C.3     1  UNL1        0.0686
     10 N         141.1117  140.2576  171.0580 N.3     1  UNL1       -0.2975
     11 C         142.4372  139.9003  170.4534 C.3     1  UNL1        0.0686
     12 C         142.5470  139.6571  168.9774 C.3     1  UNL1        0.0172
     13 C         140.2092  139.8482  167.1137 C.3     1  UNL1        0.0314
     14 H         140.9061  139.5453  171.7585 H       1  UNL1        0.1232
     15 C         139.3549  139.7483  165.2999 C.2     1  UNL1        0.2644
     16 O         138.4546  138.7987  164.9676 O.2     1  UNL1       -0.2713
     17 N         138.8118  141.1407  165.1729 N.am    1  UNL1       -0.1956
     18 O         137.3997  141.3562  164.7154 O.3     1  UNL1       -0.2951
     19 H         139.3823  141.9132  165.3899 H       1  UNL1        0.1823
     20 H         136.9805  140.4982  164.5452 H       1  UNL1        0.2414
     21 C         141.8175  138.4512  159.9500 C.ar    1  UNL1        0.1454
     22 C         140.7336  139.4073  160.3507 C.ar    1  UNL1        0.0388
     23 C         140.4709  139.6777  161.8026 C.ar    1  UNL1        0.0215
     24 C         141.2923  138.9920  162.8537 C.ar    1  UNL1        0.1063
     25 C         142.3763  138.0358  162.4530 C.ar    1  UNL1        0.0215
     26 C         142.6389  137.7654  161.0012 C.ar    1  UNL1        0.0388
     27 O         142.0802  138.1808  158.4981 O.3     1  UNL1       -0.4535
     28 C         145.0561  140.6934  156.2439 C.ar    1  UNL1        0.0536
     29 C         144.6909  141.0485  157.6548 C.ar    1  UNL1        0.0076
     30 C         143.6989  140.2109  158.4062 C.ar    1  UNL1        0.0376
     31 C         143.0722  139.0183  157.7467 C.ar    1  UNL1        0.1453
     32 C         143.4374  138.6633  156.3358 C.ar    1  UNL1        0.0376
     33 C         144.4293  139.5008  155.5845 C.ar    1  UNL1        0.0076
     34 C         148.5097  142.1149  154.9017 C.3     1  UNL1        0.1109
     35 N         147.5177  141.2775  155.6531 N.am    1  UNL1       -0.2992
     36 C         146.0480  141.5308  155.4925 C.2     1  UNL1        0.2459
     37 O         145.5703  142.6217  154.5804 O.2     1  UNL1       -0.2701
     38 H         147.8313  140.5615  156.2517 H       1  UNL1        0.1498
@<TRIPOS>BOND
     1    34    35    1
     2    35    36   am
     3    36    37    2
     4    36    28    1
     5    28    29   ar
     6    29    30   ar
     7    30    31   ar
     8    31    27    1
     9    27    21    1
    10    21    22   ar
    11    22    23   ar
    12    23    24   ar
    13    24     1    1
    14     1     2    2
    15     1     3    2
    16     1     4    1
    17     4    15    1
    18    15    16    2
    19    15    17   am
    20    17    18    1
    21     4     5    1
    22     5     6    1
    23     6     7    1
    24     7     8    1
    25     8     9    1
    26     9    10    1
    27    10    11    1
    28    11    12    1
    29     7    13    1
    30    24    25   ar
    31    25    26   ar
    32    31    32   ar
    33    32    33   ar
    34    33    28   ar
    35    26    21   ar
    36    13     4    1
    37    12     7    1
    38    35    38    1
    39    17    19    1
    40    18    20    1
    41    10    14    1
@<TRIPOS>MOLECULE
*****
 38 41 0 0 0
SMALL
GASTEIGER

@<TRIPOS>ATOM
      1 S         143.1260  140.7050  164.9147 S.O2    1  UNL1        0.0134
      2 O         144.4633  140.8643  164.8218 O.2     1  UNL1       -0.1683
      3 O         141.6478  140.4582  164.8487 O.2     1  UNL1       -0.1683
      4 C         142.9712  141.2620  166.2988 C.3     1  UNL1        0.1845
      5 C         142.7478  139.8287  166.6807 C.3     1  UNL1        0.0313
      6 C         142.5085  139.7752  168.1605 C.3     1  UNL1        0.0024
      7 C         142.5839  141.1755  168.6933 C.3     1  UNL1        0.0048
      8 C         142.6878  142.6214  169.0784 C.3     1  UNL1        0.0172
      9 C         142.5087  143.0308  170.5103 C.3     1  UNL1        0.0686
     10 N         142.2257  141.9943  171.5570 N.3     1  UNL1       -0.2975
     11 C         142.1218  140.5484  171.1718 C.3     1  UNL1        0.0686
     12 C         142.3009  140.1389  169.7399 C.3     1  UNL1        0.0172
     13 C         142.8699  142.0943  167.5426 C.3     1  UNL1        0.0314
     14 H         141.3379  142.2481  171.9902 H       1  UNL1        0.1232
     15 C         143.2269  142.5788  165.6276 C.2     1  UNL1        0.2644
     16 O         144.3570  143.3149  165.6868 O.2     1  UNL1       -0.2713
     17 N         142.1601  143.2098  164.7827 N.am    1  UNL1       -0.1956
     18 O         142.4160  144.5266  164.1116 O.3     1  UNL1       -0.2951
     19 H         141.2920  142.7596  164.6687 H       1  UNL1        0.1823
     20 H         143.3122  144.8298  164.3255 H       1  UNL1        0.2414
     21 C         143.5903  139.0339  160.7624 C.ar    1  UNL1        0.1454
     22 C         143.6728  140.5144  160.9886 C.ar    1  UNL1        0.0388
     23 C         143.5180  141.0714  162.3727 C.ar    1  UNL1        0.0215
     24 C         143.2808  140.1479  163.5306 C.ar    1  UNL1        0.1063
     25 C         143.1983  138.6674  163.3044 C.ar    1  UNL1        0.0215
     26 C         143.3530  138.1104  161.9203 C.ar    1  UNL1        0.0388
     27 O         143.7451  138.4769  159.3783 O.3     1  UNL1       -0.4535
     28 C         140.2187  138.3799  156.5844 C.ar    1  UNL1        0.0536
     29 C         141.6093  138.2302  156.0424 C.ar    1  UNL1        0.0076
     30 C         142.7847  138.2625  156.9737 C.ar    1  UNL1        0.0376
     31 C         142.5696  138.4446  158.4470 C.ar    1  UNL1        0.1453
     32 C         141.1790  138.5943  158.9890 C.ar    1  UNL1        0.0376
     33 C         140.0035  138.5620  158.0577 C.ar    1  UNL1        0.0076
     34 C         137.8475  137.3511  153.5730 C.3     1  UNL1        0.1109
     35 N         139.0229  137.3835  154.5042 N.am    1  UNL1       -0.2992
     36 C         139.0433  138.3476  155.6532 C.2     1  UNL1        0.2459
     37 O         137.8880  139.2794  155.8709 O.2     1  UNL1       -0.2701
     38 H         139.7811  136.7720  154.3613 H       1  UNL1        0.1498
@<TRIPOS>BOND
     1    34    35    1
     2    35    36   am
     3    36    37    2
     4    36    28    1
     5    28    29   ar
     6    29    30   ar
     7    30    31   ar
     8    31    27    1
     9    27    21    1
    10    21    22   ar
    11    22    23   ar
    12    23    24   ar
    13    24     1    1
    14     1     2    2
    15     1     3    2
    16     1     4    1
    17     4    15    1
    18    15    16    2
    19    15    17   am
    20    17    18    1
    21     4     5    1
    22     5     6    1
    23     6     7    1
    24     7     8    1
    25     8     9    1
    26     9    10    1
    27    10    11    1
    28    11    12    1
    29     7    13    1
    30    24    25   ar
    31    25    26   ar
    32    31    32   ar
    33    32    33   ar
    34    33    28   ar
    35    26    21   ar
    36    13     4    1
    37    12     7    1
    38    35    38    1
    39    17    19    1
    40    18    20    1
    41    10    14    1
@<TRIPOS>MOLECULE
*****
 38 41 0 0 0
SMALL
GASTEIGER

@<TRIPOS>ATOM
      1 S         140.9045  138.7618  162.3621 S.O2    1  UNL1        0.0134
      2 O         140.9089  140.0397  161.9269 O.2     1  UNL1       -0.1683
      3 O         140.9395  137.2947  162.6733 O.2     1  UNL1       -0.1683
      4 C         140.5779  139.0580  163.7958 C.3     1  UNL1        0.1845
      5 C         142.0525  138.8790  164.0047 C.3     1  UNL1        0.0313
      6 C         142.3432  139.0891  165.4612 C.3     1  UNL1        0.0024
      7 C         141.0483  139.3980  166.1525 C.3     1  UNL1        0.0048
      8 C         139.6846  139.6925  166.7034 C.3     1  UNL1        0.0172
      9 C         139.5112  139.9716  168.1670 C.3     1  UNL1        0.0686
     10 N         140.7015  139.9561  169.0796 N.3     1  UNL1       -0.2975
     11 C         142.0652  139.6616  168.5287 C.3     1  UNL1        0.0686
     12 C         142.2386  139.3825  167.0652 C.3     1  UNL1        0.0172
     13 C         139.9573  139.3788  165.1233 C.3     1  UNL1        0.0314
     14 H         140.5149  139.2535  169.7951 H       1  UNL1        0.1232
     15 C         139.1716  139.1751  163.2874 C.2     1  UNL1        0.2644
     16 O         138.3847  138.1749  162.8368 O.2     1  UNL1       -0.2713
     17 N         138.4988  140.5150  163.2440 N.am    1  UNL1       -0.1956
     18 O         137.0924  140.6320  162.7355 O.3     1  UNL1       -0.2951
     19 H         138.9801  141.3177  163.5494 H       1  UNL1        0.1823
     20 H         136.7680  139.7550  162.4774 H       1  UNL1        0.2414
     21 C         141.8842  137.8730  158.0610 C.ar    1  UNL1        0.1454
     22 C         140.5640  138.4891  158.4176 C.ar    1  UNL1        0.0388
     23 C         140.2374  138.7853  159.8513 C.ar    1  UNL1        0.0215
     24 C         141.2310  138.4655  160.9284 C.ar    1  UNL1        0.1063
     25 C         142.5514  137.8494  160.5718 C.ar    1  UNL1        0.0215
     26 C         142.8779  137.5531  159.1381 C.ar    1  UNL1        0.0388
     27 O         142.2108  137.5767  156.6273 O.3     1  UNL1       -0.4535
     28 C         142.6015  133.3127  155.2433 C.ar    1  UNL1        0.0536
     29 C         141.3114  134.0512  155.0423 C.ar    1  UNL1        0.0076
     30 C         141.1812  135.4725  155.5037 C.ar    1  UNL1        0.0376
     31 C         142.3411  136.1553  156.1659 C.ar    1  UNL1        0.1453
     32 C         143.6311  135.4168  156.3669 C.ar    1  UNL1        0.0376
     33 C         143.7613  133.9955  155.9055 C.ar    1  UNL1        0.0076
     34 C         142.2945  129.3570  155.1509 C.3     1  UNL1        0.1109
     35 N         142.1642  130.7784  155.6121 N.am    1  UNL1       -0.2992
     36 C         142.7317  131.8914  154.7820 C.2     1  UNL1        0.2459
     37 O         143.4296  131.5829  153.4904 O.2     1  UNL1       -0.2701
     38 H         141.7062  130.9808  156.4598 H       1  UNL1        0.1498
@<TRIPOS>BOND
     1    34    35    1
     2    35    36   am
     3    36    37    2
     4    36    28    1
     5    28    29   ar
     6    29    30   ar
     7    30    31   ar
     8    31    27    1
     9    27    21    1
    10    21    22   ar
    11    22    23   ar
    12    23    24   ar
    13    24     1    1
    14     1     2    2
    15     1     3    2
    16     1     4    1
    17     4    15    1
    18    15    16    2
    19    15    17   am
    20    17    18    1
    21     4     5    1
    22     5     6    1
    23     6     7    1
    24     7     8    1
    25     8     9    1
    26     9    10    1
    27    10    11    1
    28    11    12    1
    29     7    13    1
    30    24    25   ar
    31    25    26   ar
    32    31    32   ar
    33    32    33   ar
    34    33    28   ar
    35    26    21   ar
    36    13     4    1
    37    12     7    1
    38    35    38    1
    39    17    19    1
    40    18    20    1
    41    10    14    1
