@<TRIPOS>MOLECULE
*****
 24 25 0 0 0
SMALL
GASTEIGER

@<TRIPOS>ATOM
      1 C         140.0672  141.2384  167.1313 C.ar    1  UNL1        0.0265
      2 C         139.4764  139.8839  167.3885 C.ar    1  UNL1        0.0039
      3 C         138.5157  139.2854  166.4042 C.ar    1  UNL1        0.0713
      4 C         138.1458  140.0414  165.1627 C.ar    1  UNL1        0.0070
      5 C         138.7366  141.3960  164.9054 C.ar    1  UNL1        0.0372
      6 C         139.6973  141.9944  165.8897 C.ar    1  UNL1        0.1425
      7 C         137.9249  137.9308  166.6615 C.3     1  UNL1        0.4186
      8 F         137.3341  136.5763  166.9189 F       1  UNL1       -0.1659
      9 F         137.1109  138.4995  167.7857 F       1  UNL1       -0.1659
     10 F         138.7390  137.3622  165.5373 F       1  UNL1       -0.1659
     11 C         141.0279  141.8369  168.1156 C.3     1  UNL1        0.0799
     12 C         142.3593  141.1883  168.3535 C.3     1  UNL1        0.0221
     13 C         140.0586  142.9869  170.2340 C.3     1  UNL1        0.0861
     14 N         140.6572  143.0840  168.8621 N.3     1  UNL1       -0.2939
     15 H         141.5089  143.6381  168.9510 H       1  UNL1        0.1235
     16 O         140.2881  143.3490  165.6324 O.3     1  UNL1       -0.4537
     17 C         140.6041  143.7753  164.2294 C.ar    1  UNL1        0.1462
     18 C         141.6341  143.0302  163.4332 C.ar    1  UNL1        0.0384
     19 C         141.9501  143.4564  162.0302 C.ar    1  UNL1        0.0154
     20 C         141.2360  144.6277  161.4233 C.ar    1  UNL1        0.0684
     21 CL        141.5520  145.0539  160.0203 Cl      1  UNL1       -0.0814
     22 C         140.2060  145.3728  162.2195 C.ar    1  UNL1        0.0712
     23 CL        139.4920  146.5440  161.6127 Cl      1  UNL1       -0.0813
     24 C         139.8900  144.9465  163.6226 C.ar    1  UNL1        0.0497
@<TRIPOS>BOND
     1    13    14    1
     2    14    11    1
     3    11    12    1
     4    11     1    1
     5     1     2   ar
     6     2     3   ar
     7     3     7    1
     8     7     8    1
     9     7     9    1
    10     7    10    1
    11     3     4   ar
    12     4     5   ar
    13     5     6   ar
    14     6    16    1
    15    16    17    1
    16    17    18   ar
    17    18    19   ar
    18    19    20   ar
    19    20    21    1
    20    20    22   ar
    21    22    23    1
    22    22    24   ar
    23     6     1   ar
    24    24    17   ar
    25    14    15    1
@<TRIPOS>MOLECULE
*****
 24 25 0 0 0
SMALL
GASTEIGER

@<TRIPOS>ATOM
      1 C         139.9638  141.2561  167.2510 C.ar    1  UNL1        0.0265
      2 C         139.3825  139.8916  167.4751 C.ar    1  UNL1        0.0039
      3 C         138.5221  139.2606  166.4208 C.ar    1  UNL1        0.0713
      4 C         138.2429  139.9940  165.1425 C.ar    1  UNL1        0.0070
      5 C         138.8242  141.3585  164.9185 C.ar    1  UNL1        0.0372
      6 C         139.6847  141.9895  165.9727 C.ar    1  UNL1        0.1425
      7 C         137.9408  137.8960  166.6450 C.3     1  UNL1        0.4186
      8 F         137.3595  136.5316  166.8691 F       1  UNL1       -0.1659
      9 F         137.1064  138.4361  167.7684 F       1  UNL1       -0.1659
     10 F         138.7752  137.3560  165.5215 F       1  UNL1       -0.1659
     11 C         140.8243  141.8871  168.3052 C.3     1  UNL1        0.0799
     12 C         140.2499  142.1971  169.6557 C.3     1  UNL1        0.0221
     13 C         143.2631  142.2532  169.1225 C.3     1  UNL1        0.0861
     14 N         142.2592  142.2083  168.0089 N.3     1  UNL1       -0.2939
     15 H         142.5870  141.5066  167.3452 H       1  UNL1        0.1235
     16 O         140.2660  143.3541  165.7486 O.3     1  UNL1       -0.4537
     17 C         140.3861  143.8987  164.3561 C.ar    1  UNL1        0.1462
     18 C         139.3403  144.8326  163.8231 C.ar    1  UNL1        0.0384
     19 C         139.4605  145.3771  162.4307 C.ar    1  UNL1        0.0154
     20 C         140.6265  144.9878  161.5711 C.ar    1  UNL1        0.0684
     21 CL        140.7467  145.5324  160.1787 Cl      1  UNL1       -0.0814
     22 C         141.6723  144.0540  162.1041 C.ar    1  UNL1        0.0712
     23 CL        142.8384  143.6646  161.2445 Cl      1  UNL1       -0.0813
     24 C         141.5522  143.5093  163.4966 C.ar    1  UNL1        0.0497
@<TRIPOS>BOND
     1    13    14    1
     2    14    11    1
     3    11    12    1
     4    11     1    1
     5     1     2   ar
     6     2     3   ar
     7     3     7    1
     8     7     8    1
     9     7     9    1
    10     7    10    1
    11     3     4   ar
    12     4     5   ar
    13     5     6   ar
    14     6    16    1
    15    16    17    1
    16    17    18   ar
    17    18    19   ar
    18    19    20   ar
    19    20    21    1
    20    20    22   ar
    21    22    23    1
    22    22    24   ar
    23     6     1   ar
    24    24    17   ar
    25    14    15    1
@<TRIPOS>MOLECULE
*****
 24 25 0 0 0
SMALL
GASTEIGER

@<TRIPOS>ATOM
      1 C         139.9818  141.1221  167.3448 C.ar    1  UNL1        0.0265
      2 C         139.3843  139.7602  167.5399 C.ar    1  UNL1        0.0039
      3 C         138.4552  139.1939  166.5075 C.ar    1  UNL1        0.0713
      4 C         138.1236  139.9895  165.2799 C.ar    1  UNL1        0.0070
      5 C         138.7211  141.3515  165.0848 C.ar    1  UNL1        0.0372
      6 C         139.6502  141.9178  166.1173 C.ar    1  UNL1        0.1425
      7 C         137.8577  137.8319  166.7026 C.3     1  UNL1        0.4186
      8 F         137.2602  136.4700  166.8977 F       1  UNL1       -0.1659
      9 F         138.6975  137.3024  165.5782 F       1  UNL1       -0.1659
     10 F         137.0178  138.3614  167.8270 F       1  UNL1       -0.1659
     11 C         140.9110  141.6885  168.3773 C.3     1  UNL1        0.0799
     12 C         142.1984  140.9867  168.6933 C.3     1  UNL1        0.0221
     13 C         139.8781  142.8968  170.4323 C.3     1  UNL1        0.0861
     14 N         140.5526  142.9566  169.0939 N.3     1  UNL1       -0.2939
     15 H         141.4205  143.4763  169.2245 H       1  UNL1        0.1235
     16 O         140.2477  143.2798  165.9221 O.3     1  UNL1       -0.4537
     17 C         141.3898  143.4681  164.9681 C.ar    1  UNL1        0.1462
     18 C         141.2849  144.4762  163.8623 C.ar    1  UNL1        0.0384
     19 C         142.4270  144.6645  162.9083 C.ar    1  UNL1        0.0154
     20 C         143.6740  143.8447  163.0600 C.ar    1  UNL1        0.0684
     21 CL        144.8160  144.0330  162.1060 Cl      1  UNL1       -0.0814
     22 C         143.7789  142.8366  164.1658 C.ar    1  UNL1        0.0712
     23 CL        145.0258  142.0168  164.3175 Cl      1  UNL1       -0.0813
     24 C         142.6367  142.6482  165.1198 C.ar    1  UNL1        0.0497
@<TRIPOS>BOND
     1    13    14    1
     2    14    11    1
     3    11    12    1
     4    11     1    1
     5     1     2   ar
     6     2     3   ar
     7     3     7    1
     8     7     8    1
     9     7     9    1
    10     7    10    1
    11     3     4   ar
    12     4     5   ar
    13     5     6   ar
    14     6    16    1
    15    16    17    1
    16    17    18   ar
    17    18    19   ar
    18    19    20   ar
    19    20    21    1
    20    20    22   ar
    21    22    23    1
    22    22    24   ar
    23     6     1   ar
    24    24    17   ar
    25    14    15    1
@<TRIPOS>MOLECULE
*****
 24 25 0 0 0
SMALL
GASTEIGER

@<TRIPOS>ATOM
      1 C         140.8244  140.7753  167.4241 C.ar    1  UNL1        0.0265
      2 C         141.9778  139.8456  167.6591 C.ar    1  UNL1        0.0039
      3 C         142.5508  139.0581  166.5183 C.ar    1  UNL1        0.0713
      4 C         141.9704  139.2003  165.1425 C.ar    1  UNL1        0.0070
      5 C         140.8170  140.1299  164.9075 C.ar    1  UNL1        0.0372
      6 C         140.2440  140.9175  166.0483 C.ar    1  UNL1        0.1425
      7 C         143.7043  138.1284  166.7533 C.3     1  UNL1        0.4186
      8 F         144.8577  137.1987  166.9884 F       1  UNL1       -0.1659
      9 F         143.3376  138.0405  168.2051 F       1  UNL1       -0.1659
     10 F         144.0710  138.2163  165.3015 F       1  UNL1       -0.1659
     11 C         140.2513  141.5628  168.5649 C.3     1  UNL1        0.0799
     12 C         139.6143  140.8519  169.7219 C.3     1  UNL1        0.0221
     13 C         140.5855  143.8142  169.8177 C.3     1  UNL1        0.0861
     14 N         140.3154  143.0613  168.5488 N.3     1  UNL1       -0.2939
     15 H         141.0524  143.3175  167.8918 H       1  UNL1        0.1235
     16 O         139.0905  141.8472  165.8132 O.3     1  UNL1       -0.4537
     17 C         139.2197  142.9676  164.8244 C.ar    1  UNL1        0.1462
     18 C         138.0521  143.3449  163.9615 C.ar    1  UNL1        0.0384
     19 C         138.1814  144.4653  162.9727 C.ar    1  UNL1        0.0154
     20 C         139.4782  145.2086  162.8467 C.ar    1  UNL1        0.0684
     21 CL        139.6075  146.3290  161.8578 Cl      1  UNL1       -0.0814
     22 C         140.6457  144.8314  163.7095 C.ar    1  UNL1        0.0712
     23 CL        141.9426  145.5746  163.5835 Cl      1  UNL1       -0.0813
     24 C         140.5165  143.7109  164.6984 C.ar    1  UNL1        0.0497
@<TRIPOS>BOND
     1    13    14    1
     2    14    11    1
     3    11    12    1
     4    11     1    1
     5     1     2   ar
     6     2     3   ar
     7     3     7    1
     8     7     8    1
     9     7     9    1
    10     7    10    1
    11     3     4   ar
    12     4     5   ar
    13     5     6   ar
    14     6    16    1
    15    16    17    1
    16    17    18   ar
    17    18    19   ar
    18    19    20   ar
    19    20    21    1
    20    20    22   ar
    21    22    23    1
    22    22    24   ar
    23     6     1   ar
    24    24    17   ar
    25    14    15    1
@<TRIPOS>MOLECULE
*****
 24 25 0 0 0
SMALL
GASTEIGER

@<TRIPOS>ATOM
      1 C         143.0032  141.1328  165.9102 C.ar    1  UNL1        0.0265
      2 C         143.0360  142.1351  167.0256 C.ar    1  UNL1        0.0039
      3 C         142.9149  141.6774  168.4489 C.ar    1  UNL1        0.0713
      4 C         142.7610  140.2175  168.7568 C.ar    1  UNL1        0.0070
      5 C         142.7282  139.2152  167.6414 C.ar    1  UNL1        0.0372
      6 C         142.8493  139.6728  166.2181 C.ar    1  UNL1        0.1425
      7 C         142.9478  142.6798  169.5644 C.3     1  UNL1        0.4186
      8 F         142.9806  143.6822  170.6798 F       1  UNL1       -0.1659
      9 F         144.3379  142.2411  169.9177 F       1  UNL1       -0.1659
     10 F         141.5576  143.1186  169.2111 F       1  UNL1       -0.1659
     11 C         143.1243  141.5904  164.4868 C.3     1  UNL1        0.0799
     12 C         142.1631  142.6041  163.9405 C.3     1  UNL1        0.0221
     13 C         145.6449  141.3350  163.9114 C.3     1  UNL1        0.0861
     14 N         144.2067  141.0344  163.6097 N.3     1  UNL1       -0.2939
     15 H         144.1079  140.0194  163.6278 H       1  UNL1        0.1235
     16 O         142.8165  138.6704  165.1026 O.3     1  UNL1       -0.4537
     17 C         141.5656  138.4873  164.2954 C.ar    1  UNL1        0.1462
     18 C         140.2587  138.2298  164.9853 C.ar    1  UNL1        0.0384
     19 C         139.0078  138.0466  164.1782 C.ar    1  UNL1        0.0154
     20 C         139.0636  138.1210  162.6811 C.ar    1  UNL1        0.0684
     21 CL        137.8127  137.9378  161.8739 Cl      1  UNL1       -0.0814
     22 C         140.3703  138.3785  161.9911 C.ar    1  UNL1        0.0712
     23 CL        140.4261  138.4528  160.4940 Cl      1  UNL1       -0.0813
     24 C         141.6214  138.5617  162.7983 C.ar    1  UNL1        0.0497
@<TRIPOS>BOND
     1    13    14    1
     2    14    11    1
     3    11    12    1
     4    11     1    1
     5     1     2   ar
     6     2     3   ar
     7     3     7    1
     8     7     8    1
     9     7     9    1
    10     7    10    1
    11     3     4   ar
    12     4     5   ar
    13     5     6   ar
    14     6    16    1
    15    16    17    1
    16    17    18   ar
    17    18    19   ar
    18    19    20   ar
    19    20    21    1
    20    20    22   ar
    21    22    23    1
    22    22    24   ar
    23     6     1   ar
    24    24    17   ar
    25    14    15    1
@<TRIPOS>MOLECULE
*****
 24 25 0 0 0
SMALL
GASTEIGER

@<TRIPOS>ATOM
      1 C         141.7629  139.4421  166.4236 C.ar    1  UNL1        0.0265
      2 C         142.6334  139.3227  167.6393 C.ar    1  UNL1        0.0039
      3 C         142.0660  139.6056  168.9987 C.ar    1  UNL1        0.0713
      4 C         140.6282  140.0080  169.1425 C.ar    1  UNL1        0.0070
      5 C         139.7577  140.1274  167.9268 C.ar    1  UNL1        0.0372
      6 C         140.3251  139.8444  166.5674 C.ar    1  UNL1        0.1425
      7 C         142.9366  139.4862  170.2145 C.3     1  UNL1        0.4186
      8 F         143.8071  139.3667  171.4301 F       1  UNL1       -0.1659
      9 F         142.6327  138.0192  170.2879 F       1  UNL1       -0.1659
     10 F         143.2404  140.9532  170.1411 F       1  UNL1       -0.1659
     11 C         142.3302  139.1591  165.0642 C.3     1  UNL1        0.0799
     12 C         143.7114  139.6288  164.7153 C.3     1  UNL1        0.0221
     13 C         141.1023  136.9911  164.3281 C.3     1  UNL1        0.0861
     14 N         141.5164  138.4064  164.0537 N.3     1  UNL1       -0.2939
     15 H         140.6599  138.9409  163.9083 H       1  UNL1        0.1235
     16 O         139.4545  139.9639  165.3516 O.3     1  UNL1       -0.4537
     17 C         139.2674  141.2976  164.6912 C.ar    1  UNL1        0.1462
     18 C         137.9702  141.6227  164.0118 C.ar    1  UNL1        0.0384
     19 C         137.7831  142.9564  163.3514 C.ar    1  UNL1        0.0154
     20 C         138.8932  143.9650  163.3704 C.ar    1  UNL1        0.0684
     21 CL        138.7061  145.2988  162.7099 Cl      1  UNL1       -0.0814
     22 C         140.1904  143.6400  164.0497 C.ar    1  UNL1        0.0712
     23 CL        141.3005  144.6486  164.0687 Cl      1  UNL1       -0.0813
     24 C         140.3775  142.3062  164.7102 C.ar    1  UNL1        0.0497
@<TRIPOS>BOND
     1    13    14    1
     2    14    11    1
     3    11    12    1
     4    11     1    1
     5     1     2   ar
     6     2     3   ar
     7     3     7    1
     8     7     8    1
     9     7     9    1
    10     7    10    1
    11     3     4   ar
    12     4     5   ar
    13     5     6   ar
    14     6    16    1
    15    16    17    1
    16    17    18   ar
    17    18    19   ar
    18    19    20   ar
    19    20    21    1
    20    20    22   ar
    21    22    23    1
    22    22    24   ar
    23     6     1   ar
    24    24    17   ar
    25    14    15    1
@<TRIPOS>MOLECULE
*****
 24 25 0 0 0
SMALL
GASTEIGER

@<TRIPOS>ATOM
      1 C         139.1673  140.4777  166.0985 C.ar    1  UNL1        0.0265
      2 C         139.1723  139.8894  167.4783 C.ar    1  UNL1        0.0039
      3 C         139.8047  140.6412  168.6118 C.ar    1  UNL1        0.0713
      4 C         140.4321  141.9812  168.3655 C.ar    1  UNL1        0.0070
      5 C         140.4271  142.5695  166.9857 C.ar    1  UNL1        0.0372
      6 C         139.7947  141.8177  165.8521 C.ar    1  UNL1        0.1425
      7 C         139.8097  140.0530  169.9916 C.3     1  UNL1        0.4186
      8 F         139.8148  139.4647  171.3714 F       1  UNL1       -0.1659
      9 F         141.1577  139.4496  169.7295 F       1  UNL1       -0.1659
     10 F         138.4618  140.6563  170.2538 F       1  UNL1       -0.1659
     11 C         138.5348  139.7259  164.9649 C.3     1  UNL1        0.0799
     12 C         138.7995  138.2589  164.7977 C.3     1  UNL1        0.0221
     13 C         137.8089  140.2347  162.5228 C.3     1  UNL1        0.0861
     14 N         137.6377  140.4410  163.9987 N.3     1  UNL1       -0.2939
     15 H         136.6820  140.1662  164.2255 H       1  UNL1        0.1235
     16 O         139.7897  142.4059  164.4723 O.3     1  UNL1       -0.4537
     17 C         141.0562  142.4468  163.6698 C.ar    1  UNL1        0.1462
     18 C         141.4395  141.2765  162.8132 C.ar    1  UNL1        0.0384
     19 C         142.7060  141.3173  162.0107 C.ar    1  UNL1        0.0154
     20 C         143.5895  142.5284  162.0647 C.ar    1  UNL1        0.0684
     21 CL        144.8560  142.5692  161.2622 Cl      1  UNL1       -0.0814
     22 C         143.2063  143.6986  162.9212 C.ar    1  UNL1        0.0712
     23 CL        144.0897  144.9097  162.9753 Cl      1  UNL1       -0.0813
     24 C         141.9396  143.6578  163.7238 C.ar    1  UNL1        0.0497
@<TRIPOS>BOND
     1    13    14    1
     2    14    11    1
     3    11    12    1
     4    11     1    1
     5     1     2   ar
     6     2     3   ar
     7     3     7    1
     8     7     8    1
     9     7     9    1
    10     7    10    1
    11     3     4   ar
    12     4     5   ar
    13     5     6   ar
    14     6    16    1
    15    16    17    1
    16    17    18   ar
    17    18    19   ar
    18    19    20   ar
    19    20    21    1
    20    20    22   ar
    21    22    23    1
    22    22    24   ar
    23     6     1   ar
    24    24    17   ar
    25    14    15    1
@<TRIPOS>MOLECULE
*****
 24 25 0 0 0
SMALL
GASTEIGER

@<TRIPOS>ATOM
      1 C         141.8152  139.8180  166.7563 C.ar    1  UNL1        0.0265
      2 C         142.3718  140.8975  167.6366 C.ar    1  UNL1        0.0039
      3 C         141.4695  141.6344  168.5815 C.ar    1  UNL1        0.0713
      4 C         140.0107  141.2918  168.6462 C.ar    1  UNL1        0.0070
      5 C         139.4541  140.2123  167.7659 C.ar    1  UNL1        0.0372
      6 C         140.3564  139.4754  166.8210 C.ar    1  UNL1        0.1425
      7 C         142.0262  142.7139  169.4617 C.3     1  UNL1        0.4186
      8 F         142.5828  143.7934  170.3420 F       1  UNL1       -0.1659
      9 F         140.6394  143.2320  169.7033 F       1  UNL1       -0.1659
     10 F         143.4130  142.1959  169.2202 F       1  UNL1       -0.1659
     11 C         142.7175  139.0812  165.8114 C.3     1  UNL1        0.0799
     12 C         143.7812  138.1695  166.3474 C.3     1  UNL1        0.0221
     13 C         142.2744  140.6151  163.7619 C.3     1  UNL1        0.0861
     14 N         142.5561  139.2559  164.3304 N.3     1  UNL1       -0.2939
     15 H         143.4212  138.9300  163.8994 H       1  UNL1        0.1235
     16 O         139.7997  138.3959  165.9408 O.3     1  UNL1       -0.4537
     17 C         139.1679  138.7505  164.6274 C.ar    1  UNL1        0.1462
     18 C         139.1761  137.7613  163.4997 C.ar    1  UNL1        0.0384
     19 C         138.5443  138.1159  162.1864 C.ar    1  UNL1        0.0154
     20 C         137.9042  139.4596  162.0005 C.ar    1  UNL1        0.0684
     21 CL        137.2723  139.8142  160.6872 Cl      1  UNL1       -0.0814
     22 C         137.8959  140.4488  163.1281 C.ar    1  UNL1        0.0712
     23 CL        137.2557  141.7926  162.9423 Cl      1  UNL1       -0.0813
     24 C         138.5277  140.0942  164.4416 C.ar    1  UNL1        0.0497
@<TRIPOS>BOND
     1    13    14    1
     2    14    11    1
     3    11    12    1
     4    11     1    1
     5     1     2   ar
     6     2     3   ar
     7     3     7    1
     8     7     8    1
     9     7     9    1
    10     7    10    1
    11     3     4   ar
    12     4     5   ar
    13     5     6   ar
    14     6    16    1
    15    16    17    1
    16    17    18   ar
    17    18    19   ar
    18    19    20   ar
    19    20    21    1
    20    20    22   ar
    21    22    23    1
    22    22    24   ar
    23     6     1   ar
    24    24    17   ar
    25    14    15    1
@<TRIPOS>MOLECULE
*****
 24 25 0 0 0
SMALL
GASTEIGER

@<TRIPOS>ATOM
      1 C         138.7251  140.7177  164.2609 C.ar    1  UNL1        0.0265
      2 C         137.9783  139.9142  165.2839 C.ar    1  UNL1        0.0039
      3 C         138.4826  138.5608  165.6887 C.ar    1  UNL1        0.0713
      4 C         139.7337  138.0108  165.0705 C.ar    1  UNL1        0.0070
      5 C         140.4805  138.8142  164.0475 C.ar    1  UNL1        0.0372
      6 C         139.9762  140.1677  163.6427 C.ar    1  UNL1        0.1425
      7 C         137.7357  137.7573  166.7118 C.3     1  UNL1        0.4186
      8 F         136.9888  136.9538  167.7348 F       1  UNL1       -0.1659
      9 F         138.0369  136.5029  165.9466 F       1  UNL1       -0.1659
     10 F         137.4344  139.0117  167.4771 F       1  UNL1       -0.1659
     11 C         138.2208  142.0711  163.8561 C.3     1  UNL1        0.0799
     12 C         138.5381  143.2720  164.6970 C.3     1  UNL1        0.0221
     13 C         138.0655  142.5596  161.3091 C.3     1  UNL1        0.0861
     14 N         137.3993  142.2237  162.6104 N.3     1  UNL1       -0.2939
     15 H         136.9093  141.3401  162.4708 H       1  UNL1        0.1235
     16 O         140.7231  140.9712  162.6196 O.3     1  UNL1       -0.4537
     17 C         141.5592  142.1403  163.0485 C.ar    1  UNL1        0.1462
     18 C         141.5293  143.4143  162.2570 C.ar    1  UNL1        0.0384
     19 C         142.3654  144.5834  162.6859 C.ar    1  UNL1        0.0154
     20 C         143.2313  144.4788  163.9063 C.ar    1  UNL1        0.0684
     21 CL        144.0674  145.6479  164.3352 Cl      1  UNL1       -0.0814
     22 C         143.2612  143.2049  164.6977 C.ar    1  UNL1        0.0712
     23 CL        144.1271  143.1003  165.9181 Cl      1  UNL1       -0.0813
     24 C         142.4251  142.0357  164.2688 C.ar    1  UNL1        0.0497
@<TRIPOS>BOND
     1    13    14    1
     2    14    11    1
     3    11    12    1
     4    11     1    1
     5     1     2   ar
     6     2     3   ar
     7     3     7    1
     8     7     8    1
     9     7     9    1
    10     7    10    1
    11     3     4   ar
    12     4     5   ar
    13     5     6   ar
    14     6    16    1
    15    16    17    1
    16    17    18   ar
    17    18    19   ar
    18    19    20   ar
    19    20    21    1
    20    20    22   ar
    21    22    23    1
    22    22    24   ar
    23     6     1   ar
    24    24    17   ar
    25    14    15    1
