@<TRIPOS>MOLECULE
*****
 29 33 0 0 0
SMALL
GASTEIGER

@<TRIPOS>ATOM
      1 N         139.6733  139.8986  169.2140 N.pl3   1  UNL1       -0.3425
      2 C         139.2266  139.7806  167.7869 C.ar    1  UNL1        0.1300
      3 N         138.3808  138.6179  167.3594 N.ar    1  UNL1       -0.2094
      4 C         137.9341  138.4999  165.9324 C.ar    1  UNL1        0.2014
      5 N         138.3332  139.5445  164.9327 N.ar    1  UNL1       -0.2065
      6 C         139.1790  140.7072  165.3602 C.ar    1  UNL1        0.1482
      7 C         139.6257  140.8252  166.7872 C.ar    1  UNL1        0.0668
      8 C         140.4473  142.0738  166.9140 C.ar    1  UNL1        0.0229
      9 C         140.5084  142.7275  165.5653 C.ar    1  UNL1        0.0771
     10 N         139.7246  141.8829  164.6050 N.ar    1  UNL1       -0.3133
     11 H         139.4113  139.2129  169.8701 H       1  UNL1        0.1437
     12 H         140.2284  140.6617  169.4945 H       1  UNL1        0.1437
     13 C         141.0942  142.5799  168.1692 C.ar    1  UNL1        0.0046
     14 C         140.3416  143.5023  169.0815 C.ar    1  UNL1        0.0003
     15 C         140.9885  144.0084  170.3367 C.ar    1  UNL1        0.0031
     16 C         142.3881  143.5919  170.6795 C.ar    1  UNL1        0.0366
     17 C         143.1409  142.6695  169.7671 C.ar    1  UNL1        0.1337
     18 O         144.5405  142.2530  170.1099 O.3     1  UNL1       -0.5055
     19 C         142.4940  142.1634  168.5120 C.ar    1  UNL1        0.0367
     20 H         144.9447  142.5691  170.8939 H       1  UNL1        0.2922
     21 C         139.5219  142.1644  163.1457 C.3     1  UNL1        0.0870
     22 C         140.3734  142.0533  161.9157 C.3     1  UNL1        0.0240
     23 C         139.2353  142.5626  161.0818 C.3     1  UNL1        0.0197
     24 C         138.3838  142.6736  162.3117 C.3     1  UNL1        0.0240
     25 C         139.0325  142.8441  159.6225 C.3     1  UNL1        0.0722
     26 N         139.6596  144.0554  158.9982 N.3     1  UNL1       -0.2726
     27 C         139.8977  144.5209  157.5922 C.3     1  UNL1        0.0735
     28 C         140.5463  145.7683  158.1151 C.3     1  UNL1        0.0346
     29 C         140.3082  145.3027  159.5211 C.3     1  UNL1        0.0735
@<TRIPOS>BOND
     1     1     2    1
     2     2     3   ar
     3     3     4   ar
     4     4     5   ar
     5     5     6   ar
     6     6     7   ar
     7     7     8   ar
     8     8    13    1
     9    13    14   ar
    10    14    15   ar
    11    15    16   ar
    12    16    17   ar
    13    17    18    1
    14    17    19   ar
    15     8     9   ar
    16     9    10   ar
    17    21    10    1
    18    21    22    1
    19    22    23    1
    20    23    25    1
    21    25    26    1
    22    26    27    1
    23    27    28    1
    24    28    29    1
    25    23    24    1
    26     7     2   ar
    27    19    13   ar
    28    24    21    1
    29    10     6   ar
    30    29    26    1
    31     1    11    1
    32     1    12    1
    33    18    20    1
@<TRIPOS>MOLECULE
*****
 29 33 0 0 0
SMALL
GASTEIGER

@<TRIPOS>ATOM
      1 N         143.0325  138.9300  167.7614 N.pl3   1  UNL1       -0.3425
      2 C         143.1287  139.4917  166.3739 C.ar    1  UNL1        0.1300
      3 N         144.0036  138.8253  165.3539 N.ar    1  UNL1       -0.2094
      4 C         144.0998  139.3871  163.9664 C.ar    1  UNL1        0.2014
      5 N         143.3211  140.6153  163.5988 N.ar    1  UNL1       -0.2065
      6 C         142.4462  141.2817  164.6188 C.ar    1  UNL1        0.1482
      7 C         142.3500  140.7199  166.0063 C.ar    1  UNL1        0.0668
      8 C         141.4123  141.5867  166.7933 C.ar    1  UNL1        0.0229
      9 C         140.9289  142.6841  165.8923 C.ar    1  UNL1        0.0771
     10 N         141.5679  142.4956  164.5484 N.ar    1  UNL1       -0.3133
     11 H         143.5436  138.1238  168.0026 H       1  UNL1        0.1437
     12 H         142.4583  139.3674  168.4308 H       1  UNL1        0.1437
     13 C         141.0258  141.3904  168.2293 C.ar    1  UNL1        0.0046
     14 C         139.8072  140.5870  168.5750 C.ar    1  UNL1        0.0003
     15 C         139.4207  140.3908  170.0110 C.ar    1  UNL1        0.0031
     16 C         140.2529  140.9979  171.1014 C.ar    1  UNL1        0.0366
     17 C         141.4715  141.8013  170.7558 C.ar    1  UNL1        0.1337
     18 O         142.3037  142.4085  171.8461 O.3     1  UNL1       -0.5055
     19 C         141.8580  141.9976  169.3198 C.ar    1  UNL1        0.0367
     20 H         142.0623  142.2859  172.7431 H       1  UNL1        0.2922
     21 C         141.3644  143.3679  163.3451 C.3     1  UNL1        0.0870
     22 C         140.5935  143.2450  162.0642 C.3     1  UNL1        0.0240
     23 C         141.0764  144.6014  161.6435 C.3     1  UNL1        0.0197
     24 C         141.8473  144.7242  162.9244 C.3     1  UNL1        0.0240
     25 C         140.8729  145.4737  160.4403 C.3     1  UNL1        0.0722
     26 N         141.5537  145.1378  159.1466 N.3     1  UNL1       -0.2726
     27 C         141.7348  145.8353  157.8310 C.3     1  UNL1        0.0735
     28 C         142.5165  144.6629  157.3170 C.3     1  UNL1        0.0346
     29 C         142.3354  143.9653  158.6325 C.3     1  UNL1        0.0735
@<TRIPOS>BOND
     1     1     2    1
     2     2     3   ar
     3     3     4   ar
     4     4     5   ar
     5     5     6   ar
     6     6     7   ar
     7     7     8   ar
     8     8    13    1
     9    13    14   ar
    10    14    15   ar
    11    15    16   ar
    12    16    17   ar
    13    17    18    1
    14    17    19   ar
    15     8     9   ar
    16     9    10   ar
    17    21    10    1
    18    21    22    1
    19    22    23    1
    20    23    25    1
    21    25    26    1
    22    26    27    1
    23    27    28    1
    24    28    29    1
    25    23    24    1
    26     7     2   ar
    27    19    13   ar
    28    24    21    1
    29    10     6   ar
    30    29    26    1
    31     1    11    1
    32     1    12    1
    33    18    20    1
@<TRIPOS>MOLECULE
*****
 29 33 0 0 0
SMALL
GASTEIGER

@<TRIPOS>ATOM
      1 N         143.4298  142.7080  167.3121 N.pl3   1  UNL1       -0.3425
      2 C         143.6733  142.4273  165.8588 C.ar    1  UNL1        0.1300
      3 N         144.4486  143.4046  165.0259 N.ar    1  UNL1       -0.2094
      4 C         144.6921  143.1240  163.5726 C.ar    1  UNL1        0.2014
      5 N         144.1603  141.8661  162.9523 N.ar    1  UNL1       -0.2065
      6 C         143.3850  140.8889  163.7852 C.ar    1  UNL1        0.1482
      7 C         143.1415  141.1695  165.2385 C.ar    1  UNL1        0.0668
      8 C         142.3485  140.0288  165.8043 C.ar    1  UNL1        0.0229
      9 C         142.1019  139.0432  164.7007 C.ar    1  UNL1        0.0771
     10 N         142.7425  139.5748  163.4529 N.ar    1  UNL1       -0.3133
     11 H         143.7788  143.5336  167.7192 H       1  UNL1        0.1437
     12 H         142.9209  142.0665  167.8588 H       1  UNL1        0.1437
     13 C         141.8837  139.8969  167.2243 C.ar    1  UNL1        0.0046
     14 C         140.5124  140.3655  167.6113 C.ar    1  UNL1        0.0003
     15 C         140.0476  140.2336  169.0314 C.ar    1  UNL1        0.0031
     16 C         140.9542  139.6331  170.0645 C.ar    1  UNL1        0.0366
     17 C         142.3256  139.1645  169.6776 C.ar    1  UNL1        0.1337
     18 O         143.2322  138.5639  170.7107 O.3     1  UNL1       -0.5055
     19 C         142.7904  139.2964  168.2576 C.ar    1  UNL1        0.0367
     20 H         142.9420  138.4815  171.5978 H       1  UNL1        0.2922
     21 C         142.7408  138.9091  162.1087 C.3     1  UNL1        0.0870
     22 C         143.7689  138.2076  161.2712 C.3     1  UNL1        0.0240
     23 C         142.7387  137.9678  160.2076 C.3     1  UNL1        0.0197
     24 C         141.7108  138.6692  161.0451 C.3     1  UNL1        0.0240
     25 C         142.7371  137.3021  158.8634 C.3     1  UNL1        0.0722
     26 N         143.0775  138.0923  157.6348 N.3     1  UNL1       -0.2726
     27 C         143.3240  139.5425  157.3409 C.3     1  UNL1        0.0735
     28 C         143.5591  139.2100  155.8972 C.3     1  UNL1        0.0346
     29 C         143.3126  137.7599  156.1911 C.3     1  UNL1        0.0735
@<TRIPOS>BOND
     1     1     2    1
     2     2     3   ar
     3     3     4   ar
     4     4     5   ar
     5     5     6   ar
     6     6     7   ar
     7     7     8   ar
     8     8    13    1
     9    13    14   ar
    10    14    15   ar
    11    15    16   ar
    12    16    17   ar
    13    17    18    1
    14    17    19   ar
    15     8     9   ar
    16     9    10   ar
    17    21    10    1
    18    21    22    1
    19    22    23    1
    20    23    25    1
    21    25    26    1
    22    26    27    1
    23    27    28    1
    24    28    29    1
    25    23    24    1
    26     7     2   ar
    27    19    13   ar
    28    24    21    1
    29    10     6   ar
    30    29    26    1
    31     1    11    1
    32     1    12    1
    33    18    20    1
@<TRIPOS>MOLECULE
*****
 29 33 0 0 0
SMALL
GASTEIGER

@<TRIPOS>ATOM
      1 N         139.5207  139.7125  167.7481 N.pl3   1  UNL1       -0.3425
      2 C         139.2501  140.1165  166.3291 C.ar    1  UNL1        0.1300
      3 N         138.3707  139.2656  165.4617 N.ar    1  UNL1       -0.2094
      4 C         138.1001  139.6696  164.0427 C.ar    1  UNL1        0.2014
      5 N         138.7090  140.9245  163.4910 N.ar    1  UNL1       -0.2065
      6 C         139.5885  141.7754  164.3584 C.ar    1  UNL1        0.1482
      7 C         139.8591  141.3714  165.7774 C.ar    1  UNL1        0.0668
      8 C         140.7600  142.4029  166.3893 C.ar    1  UNL1        0.0229
      9 C         141.0462  143.4444  165.3485 C.ar    1  UNL1        0.0771
     10 N         140.3222  143.0566  164.0933 N.ar    1  UNL1       -0.3133
     11 H         139.1210  138.8888  168.1101 H       1  UNL1        0.1437
     12 H         140.0980  140.2710  168.3174 H       1  UNL1        0.1437
     13 C         141.2828  142.3944  167.7952 C.ar    1  UNL1        0.0046
     14 C         142.7380  142.1377  168.0527 C.ar    1  UNL1        0.0003
     15 C         143.2609  142.1291  169.4586 C.ar    1  UNL1        0.0031
     16 C         142.3285  142.3773  170.6070 C.ar    1  UNL1        0.0366
     17 C         140.8732  142.6341  170.3496 C.ar    1  UNL1        0.1337
     18 O         139.9408  142.8823  171.4980 O.3     1  UNL1       -0.5055
     19 C         140.3504  142.6426  168.9437 C.ar    1  UNL1        0.0367
     20 H         140.2673  142.8770  172.3762 H       1  UNL1        0.2922
     21 C         140.3304  143.8165  162.8001 C.3     1  UNL1        0.0870
     22 C         139.6382  143.6672  161.4777 C.3     1  UNL1        0.0240
     23 C         140.3420  144.8911  160.9711 C.3     1  UNL1        0.0197
     24 C         141.0342  145.0404  162.2934 C.3     1  UNL1        0.0240
     25 C         140.3502  145.6510  159.6779 C.3     1  UNL1        0.0722
     26 N         141.2220  145.1951  158.5456 N.3     1  UNL1       -0.2726
     27 C         141.6068  143.8631  157.9732 C.3     1  UNL1        0.0735
     28 C         142.4549  144.5502  156.9443 C.3     1  UNL1        0.0346
     29 C         142.0700  145.8823  157.5166 C.3     1  UNL1        0.0735
@<TRIPOS>BOND
     1     1     2    1
     2     2     3   ar
     3     3     4   ar
     4     4     5   ar
     5     5     6   ar
     6     6     7   ar
     7     7     8   ar
     8     8    13    1
     9    13    14   ar
    10    14    15   ar
    11    15    16   ar
    12    16    17   ar
    13    17    18    1
    14    17    19   ar
    15     8     9   ar
    16     9    10   ar
    17    21    10    1
    18    21    22    1
    19    22    23    1
    20    23    25    1
    21    25    26    1
    22    26    27    1
    23    27    28    1
    24    28    29    1
    25    23    24    1
    26     7     2   ar
    27    19    13   ar
    28    24    21    1
    29    10     6   ar
    30    29    26    1
    31     1    11    1
    32     1    12    1
    33    18    20    1
@<TRIPOS>MOLECULE
*****
 29 33 0 0 0
SMALL
GASTEIGER

@<TRIPOS>ATOM
      1 N         143.4633  142.5788  167.6078 N.pl3   1  UNL1       -0.3425
      2 C         143.1263  142.2967  166.1736 C.ar    1  UNL1        0.1300
      3 N         144.1787  142.4382  165.1141 N.ar    1  UNL1       -0.2094
      4 C         143.8417  142.1560  163.6799 C.ar    1  UNL1        0.2014
      5 N         142.4525  141.7324  163.3052 N.ar    1  UNL1       -0.2065
      6 C         141.4001  141.5910  164.3647 C.ar    1  UNL1        0.1482
      7 C         141.7371  141.8731  165.7989 C.ar    1  UNL1        0.0668
      8 C         140.5005  141.6500  166.6181 C.ar    1  UNL1        0.0229
      9 C         139.3993  141.2300  165.6902 C.ar    1  UNL1        0.0771
     10 N         139.9553  141.1935  164.2976 N.ar    1  UNL1       -0.3133
     11 H         144.3751  142.8569  167.8537 H       1  UNL1        0.1437
     12 H         142.7726  142.4860  168.3031 H       1  UNL1        0.1437
     13 C         140.3853  141.8175  168.1042 C.ar    1  UNL1        0.0046
     14 C         140.4219  143.1894  168.7095 C.ar    1  UNL1        0.0003
     15 C         140.3068  143.3569  170.1956 C.ar    1  UNL1        0.0031
     16 C         140.1550  142.1524  171.0766 C.ar    1  UNL1        0.0366
     17 C         140.1184  140.7804  170.4714 C.ar    1  UNL1        0.1337
     18 O         139.9667  139.5759  171.3523 O.3     1  UNL1       -0.5055
     19 C         140.2336  140.6129  168.9853 C.ar    1  UNL1        0.0367
     20 H         139.8948  139.6805  172.2807 H       1  UNL1        0.2922
     21 C         139.1993  140.8244  163.0557 C.3     1  UNL1        0.0870
     22 C         138.4993  141.5909  161.9728 C.3     1  UNL1        0.0240
     23 C         138.1300  140.3024  161.2995 C.3     1  UNL1        0.0197
     24 C         138.8299  139.5359  162.3824 C.3     1  UNL1        0.0240
     25 C         137.3740  139.9333  160.0576 C.3     1  UNL1        0.0722
     26 N         138.0158  140.0980  158.7120 N.3     1  UNL1       -0.2726
     27 C         139.2361  139.5379  158.0432 C.3     1  UNL1        0.0735
     28 C         138.9237  140.3310  156.8089 C.3     1  UNL1        0.0346
     29 C         137.7034  140.8911  157.4777 C.3     1  UNL1        0.0735
@<TRIPOS>BOND
     1     1     2    1
     2     2     3   ar
     3     3     4   ar
     4     4     5   ar
     5     5     6   ar
     6     6     7   ar
     7     7     8   ar
     8     8    13    1
     9    13    14   ar
    10    14    15   ar
    11    15    16   ar
    12    16    17   ar
    13    17    18    1
    14    17    19   ar
    15     8     9   ar
    16     9    10   ar
    17    21    10    1
    18    21    22    1
    19    22    23    1
    20    23    25    1
    21    25    26    1
    22    26    27    1
    23    27    28    1
    24    28    29    1
    25    23    24    1
    26     7     2   ar
    27    19    13   ar
    28    24    21    1
    29    10     6   ar
    30    29    26    1
    31     1    11    1
    32     1    12    1
    33    18    20    1
@<TRIPOS>MOLECULE
*****
 29 33 0 0 0
SMALL
GASTEIGER

@<TRIPOS>ATOM
      1 N         142.8194  139.5618  167.8942 N.pl3   1  UNL1       -0.3425
      2 C         142.7887  139.6469  166.3969 C.ar    1  UNL1        0.1300
      3 N         143.7758  138.8661  165.5809 N.ar    1  UNL1       -0.2094
      4 C         143.7451  138.9512  164.0837 C.ar    1  UNL1        0.2014
      5 N         142.7273  139.8171  163.4024 N.ar    1  UNL1       -0.2065
      6 C         141.7402  140.5979  164.2184 C.ar    1  UNL1        0.1482
      7 C         141.7709  140.5128  165.7156 C.ar    1  UNL1        0.0668
      8 C         140.6794  141.3908  166.2523 C.ar    1  UNL1        0.0229
      9 C         139.9742  142.0185  165.0867 C.ar    1  UNL1        0.0771
     10 N         140.6297  141.5284  163.8297 N.ar    1  UNL1       -0.3133
     11 H         143.4875  138.9935  168.3413 H       1  UNL1        0.1437
     12 H         142.1715  140.0743  168.4298 H       1  UNL1        0.1437
     13 C         140.3509  141.6036  167.7003 C.ar    1  UNL1        0.0046
     14 C         140.7391  142.8847  168.3770 C.ar    1  UNL1        0.0003
     15 C         140.4106  143.0976  169.8250 C.ar    1  UNL1        0.0031
     16 C         139.6939  142.0293  170.5964 C.ar    1  UNL1        0.0366
     17 C         139.3057  140.7481  169.9197 C.ar    1  UNL1        0.1337
     18 O         138.5890  139.6798  170.6910 O.3     1  UNL1       -0.5055
     19 C         139.6342  140.5353  168.4717 C.ar    1  UNL1        0.0367
     20 H         138.3837  139.8127  171.5956 H       1  UNL1        0.2922
     21 C         140.2428  141.9031  162.4297 C.3     1  UNL1        0.0870
     22 C         139.0199  142.4886  161.7879 C.3     1  UNL1        0.0240
     23 C         139.6956  142.4331  160.4499 C.3     1  UNL1        0.0197
     24 C         140.9184  141.8477  161.0917 C.3     1  UNL1        0.0240
     25 C         139.3087  142.8078  159.0499 C.3     1  UNL1        0.0722
     26 N         139.7917  144.0988  158.4584 N.3     1  UNL1       -0.2726
     27 C         140.3806  145.3634  159.0098 C.3     1  UNL1        0.0735
     28 C         140.4748  145.9247  157.6219 C.3     1  UNL1        0.0346
     29 C         139.8859  144.6601  157.0705 C.3     1  UNL1        0.0735
@<TRIPOS>BOND
     1     1     2    1
     2     2     3   ar
     3     3     4   ar
     4     4     5   ar
     5     5     6   ar
     6     6     7   ar
     7     7     8   ar
     8     8    13    1
     9    13    14   ar
    10    14    15   ar
    11    15    16   ar
    12    16    17   ar
    13    17    18    1
    14    17    19   ar
    15     8     9   ar
    16     9    10   ar
    17    21    10    1
    18    21    22    1
    19    22    23    1
    20    23    25    1
    21    25    26    1
    22    26    27    1
    23    27    28    1
    24    28    29    1
    25    23    24    1
    26     7     2   ar
    27    19    13   ar
    28    24    21    1
    29    10     6   ar
    30    29    26    1
    31     1    11    1
    32     1    12    1
    33    18    20    1
@<TRIPOS>MOLECULE
*****
 29 33 0 0 0
SMALL
GASTEIGER

@<TRIPOS>ATOM
      1 N         139.2317  140.0019  168.7383 N.pl3   1  UNL1       -0.3425
      2 C         139.3187  139.5493  167.3109 C.ar    1  UNL1        0.1300
      3 N         138.3543  138.5262  166.7884 N.ar    1  UNL1       -0.2094
      4 C         138.4413  138.0735  165.3610 C.ar    1  UNL1        0.2014
      5 N         139.4928  138.6439  164.4561 N.ar    1  UNL1       -0.2065
      6 C         140.4573  139.6669  164.9786 C.ar    1  UNL1        0.1482
      7 C         140.3703  140.1196  166.4060 C.ar    1  UNL1        0.0668
      8 C         141.4504  141.1345  166.6371 C.ar    1  UNL1        0.0229
      9 C         142.2050  141.3091  165.3526 C.ar    1  UNL1        0.0771
     10 N         141.5912  140.4021  164.3276 N.ar    1  UNL1       -0.3133
     11 H         138.5415  139.6276  169.3323 H       1  UNL1        0.1437
     12 H         139.8647  140.6734  169.0813 H       1  UNL1        0.1437
     13 C         141.7273  141.8493  167.9265 C.ar    1  UNL1        0.0046
     14 C         142.9734  141.5411  168.7023 C.ar    1  UNL1        0.0003
     15 C         143.2503  142.2560  169.9917 C.ar    1  UNL1        0.0031
     16 C         142.2809  143.2790  170.5051 C.ar    1  UNL1        0.0366
     17 C         141.0347  143.5873  169.7293 C.ar    1  UNL1        0.1337
     18 O         140.0654  144.6103  170.2427 O.3     1  UNL1       -0.5055
     19 C         140.7579  142.8725  168.4400 C.ar    1  UNL1        0.0367
     20 H         140.2383  145.0569  171.0481 H       1  UNL1        0.2922
     21 C         142.0337  140.2558  162.9018 C.3     1  UNL1        0.0870
     22 C         141.7354  140.9749  161.6196 C.3     1  UNL1        0.0240
     23 C         142.6594  140.0490  160.8854 C.3     1  UNL1        0.0197
     24 C         142.9576  139.3300  162.1676 C.3     1  UNL1        0.0240
     25 C         143.1018  139.9028  159.4596 C.3     1  UNL1        0.0722
     26 N         143.9483  140.9657  158.8242 N.3     1  UNL1       -0.2726
     27 C         144.6698  141.1062  157.5166 C.3     1  UNL1        0.0735
     28 C         145.1454  142.4688  157.9255 C.3     1  UNL1        0.0346
     29 C         144.4239  142.3283  159.2331 C.3     1  UNL1        0.0735
@<TRIPOS>BOND
     1     1     2    1
     2     2     3   ar
     3     3     4   ar
     4     4     5   ar
     5     5     6   ar
     6     6     7   ar
     7     7     8   ar
     8     8    13    1
     9    13    14   ar
    10    14    15   ar
    11    15    16   ar
    12    16    17   ar
    13    17    18    1
    14    17    19   ar
    15     8     9   ar
    16     9    10   ar
    17    21    10    1
    18    21    22    1
    19    22    23    1
    20    23    25    1
    21    25    26    1
    22    26    27    1
    23    27    28    1
    24    28    29    1
    25    23    24    1
    26     7     2   ar
    27    19    13   ar
    28    24    21    1
    29    10     6   ar
    30    29    26    1
    31     1    11    1
    32     1    12    1
    33    18    20    1
@<TRIPOS>MOLECULE
*****
 29 33 0 0 0
SMALL
GASTEIGER

@<TRIPOS>ATOM
      1 N         143.5171  142.6090  167.5284 N.pl3   1  UNL1       -0.3425
      2 C         143.4274  142.4909  166.0357 C.ar    1  UNL1        0.1300
      3 N         144.2196  143.4169  165.1612 N.ar    1  UNL1       -0.2094
      4 C         144.1299  143.2989  163.6686 C.ar    1  UNL1        0.2014
      5 N         143.2480  142.2549  163.0504 N.ar    1  UNL1       -0.2065
      6 C         142.4558  141.3289  163.9249 C.ar    1  UNL1        0.1482
      7 C         142.5455  141.4469  165.4176 C.ar    1  UNL1        0.0668
      8 C         141.6539  140.4016  166.0196 C.ar    1  UNL1        0.0229
      9 C         141.0132  139.6375  164.8991 C.ar    1  UNL1        0.0771
     10 N         141.5088  140.2106  163.6045 N.ar    1  UNL1       -0.3133
     11 H         144.0960  143.2942  167.9341 H       1  UNL1        0.1437
     12 H         142.9971  142.0012  168.1024 H       1  UNL1        0.1437
     13 C         141.4405  140.1624  167.4850 C.ar    1  UNL1        0.0046
     14 C         142.4962  139.4679  168.2931 C.ar    1  UNL1        0.0003
     15 C         142.2828  139.2287  169.7585 C.ar    1  UNL1        0.0031
     16 C         141.0137  139.6840  170.4157 C.ar    1  UNL1        0.0366
     17 C         139.9580  140.3785  169.6076 C.ar    1  UNL1        0.1337
     18 O         138.6888  140.8338  170.2648 O.3     1  UNL1       -0.5055
     19 C         140.1713  140.6177  168.1423 C.ar    1  UNL1        0.0367
     20 H         138.5555  140.6844  171.1801 H       1  UNL1        0.2922
     21 C         141.1248  139.7469  162.2306 C.3     1  UNL1        0.0870
     22 C         140.6044  138.4650  161.6507 C.3     1  UNL1        0.0240
     23 C         140.5817  139.0909  160.2877 C.3     1  UNL1        0.0197
     24 C         141.1021  140.3727  160.8677 C.3     1  UNL1        0.0240
     25 C         140.1977  138.6272  158.9138 C.3     1  UNL1        0.0722
     26 N         141.2126  137.9533  158.0388 N.3     1  UNL1       -0.2726
     27 C         141.1866  137.3168  156.6808 C.3     1  UNL1        0.0735
     28 C         142.6479  137.0001  156.8012 C.3     1  UNL1        0.0346
     29 C         142.6739  137.6365  158.1593 C.3     1  UNL1        0.0735
@<TRIPOS>BOND
     1     1     2    1
     2     2     3   ar
     3     3     4   ar
     4     4     5   ar
     5     5     6   ar
     6     6     7   ar
     7     7     8   ar
     8     8    13    1
     9    13    14   ar
    10    14    15   ar
    11    15    16   ar
    12    16    17   ar
    13    17    18    1
    14    17    19   ar
    15     8     9   ar
    16     9    10   ar
    17    21    10    1
    18    21    22    1
    19    22    23    1
    20    23    25    1
    21    25    26    1
    22    26    27    1
    23    27    28    1
    24    28    29    1
    25    23    24    1
    26     7     2   ar
    27    19    13   ar
    28    24    21    1
    29    10     6   ar
    30    29    26    1
    31     1    11    1
    32     1    12    1
    33    18    20    1
@<TRIPOS>MOLECULE
*****
 29 33 0 0 0
SMALL
GASTEIGER

@<TRIPOS>ATOM
      1 N         140.0956  143.2159  167.5162 N.pl3   1  UNL1       -0.3425
      2 C         140.1713  143.1699  166.0188 C.ar    1  UNL1        0.1300
      3 N         139.2009  143.9623  165.1941 N.ar    1  UNL1       -0.2094
      4 C         139.2766  143.9163  163.6967 C.ar    1  UNL1        0.2014
      5 N         140.3227  143.0778  163.0241 N.ar    1  UNL1       -0.2065
      6 C         141.2932  142.2854  163.8488 C.ar    1  UNL1        0.1482
      7 C         141.2175  142.3314  165.3462 C.ar    1  UNL1        0.0668
      8 C         142.3014  141.4501  165.8924 C.ar    1  UNL1        0.0229
      9 C         143.0470  140.8593  164.7326 C.ar    1  UNL1        0.0771
     10 N         142.4239  141.3756  163.4696 N.ar    1  UNL1       -0.3133
     11 H         139.4090  143.7663  167.9577 H       1  UNL1        0.1437
     12 H         140.7326  142.6958  168.0575 H       1  UNL1        0.1437
     13 C         142.5892  141.2029  167.3436 C.ar    1  UNL1        0.0046
     14 C         142.1864  139.9046  167.9776 C.ar    1  UNL1        0.0003
     15 C         142.4742  139.6574  169.4289 C.ar    1  UNL1        0.0031
     16 C         143.1648  140.7086  170.2462 C.ar    1  UNL1        0.0366
     17 C         143.5677  142.0070  169.6122 C.ar    1  UNL1        0.1337
     18 O         144.2583  143.0582  170.4294 O.3     1  UNL1       -0.5055
     19 C         143.2799  142.2542  168.1610 C.ar    1  UNL1        0.0367
     20 H         144.4381  142.9039  171.3359 H       1  UNL1        0.2922
     21 C         142.8557  141.0408  162.0727 C.3     1  UNL1        0.0870
     22 C         142.2726  141.2423  160.7053 C.3     1  UNL1        0.0240
     23 C         143.4662  140.5675  160.0970 C.3     1  UNL1        0.0197
     24 C         144.0491  140.3660  161.4643 C.3     1  UNL1        0.0240
     25 C         143.8979  140.2327  158.7000 C.3     1  UNL1        0.0722
     26 N         143.3573  139.0095  158.0207 N.3     1  UNL1       -0.2726
     27 C         143.2619  138.5406  156.5991 C.3     1  UNL1        0.0735
     28 C         142.5927  137.2797  157.0599 C.3     1  UNL1        0.0346
     29 C         142.6881  137.7486  158.4815 C.3     1  UNL1        0.0735
@<TRIPOS>BOND
     1     1     2    1
     2     2     3   ar
     3     3     4   ar
     4     4     5   ar
     5     5     6   ar
     6     6     7   ar
     7     7     8   ar
     8     8    13    1
     9    13    14   ar
    10    14    15   ar
    11    15    16   ar
    12    16    17   ar
    13    17    18    1
    14    17    19   ar
    15     8     9   ar
    16     9    10   ar
    17    21    10    1
    18    21    22    1
    19    22    23    1
    20    23    25    1
    21    25    26    1
    22    26    27    1
    23    27    28    1
    24    28    29    1
    25    23    24    1
    26     7     2   ar
    27    19    13   ar
    28    24    21    1
    29    10     6   ar
    30    29    26    1
    31     1    11    1
    32     1    12    1
    33    18    20    1
