@<TRIPOS>MOLECULE
*****
 28 31 0 0 0
SMALL
GASTEIGER

@<TRIPOS>ATOM
      1 C         137.3005  138.0975  167.2487 C.3     1  UNL1        0.0420
      2 C         138.2677  139.1460  166.7847 C.3     1  UNL1        0.1912
      3 O         138.3675  139.4814  165.3261 O.3     1  UNL1       -0.3500
      4 C         139.3346  140.5299  164.8620 C.3     1  UNL1        0.1145
      5 C         140.3018  141.5784  164.3981 C.3     1  UNL1        0.0463
      6 C         140.4016  141.9138  162.9395 C.3     1  UNL1        0.0746
      7 N         139.5343  141.2006  161.9449 N.3     1  UNL1       -0.2722
      8 C         138.5672  140.1521  162.4088 C.3     1  UNL1        0.0746
      9 C         138.4674  139.8168  163.8674 C.3     1  UNL1        0.0463
     10 C         140.2019  141.2431  165.8567 C.3     1  UNL1        0.1254
     11 N         140.1020  140.9077  167.3153 N.am    1  UNL1       -0.2535
     12 C         139.1349  139.8592  167.7793 C.2     1  UNL1        0.2566
     13 O         139.0351  139.5238  169.2379 O.2     1  UNL1       -0.2719
     14 C         140.9693  141.6208  168.3099 C.ar    1  UNL1        0.0645
     15 C         140.4855  142.8848  168.9566 C.ar    1  UNL1        0.0158
     16 C         141.3528  143.5980  169.9512 C.ar    1  UNL1        0.0013
     17 C         142.7039  143.0471  170.2992 C.ar    1  UNL1        0.0009
     18 C         143.1877  141.7830  169.6525 C.ar    1  UNL1        0.0127
     19 C         142.3204  141.0699  168.6579 C.ar    1  UNL1        0.0713
     20 CL        142.8042  139.8058  168.0113 Cl      1  UNL1       -0.0809
     21 C         139.6342  141.5360  160.4862 C.3     1  UNL1        0.0768
     22 C         140.5926  140.7871  159.6084 C.3     1  UNL1        0.0437
     23 C         141.6825  139.9596  160.2227 C.ar    1  UNL1       -0.0208
     24 C         141.4635  138.4968  160.4719 C.ar    1  UNL1       -0.0042
     25 C         142.5534  137.6693  161.0862 C.ar    1  UNL1       -0.0003
     26 C         143.8623  138.3046  161.4512 C.ar    1  UNL1       -0.0000
     27 C         144.0813  139.7674  161.2019 C.ar    1  UNL1       -0.0003
     28 C         142.9914  140.5949  160.5876 C.ar    1  UNL1       -0.0042
@<TRIPOS>BOND
     1     1     2    1
     2     2     3    1
     3     3     4    1
     4     4     5    1
     5     5     6    1
     6     6     7    1
     7     7    21    1
     8    21    22    1
     9    22    23    1
    10    23    24   ar
    11    24    25   ar
    12    25    26   ar
    13    26    27   ar
    14    27    28   ar
    15     7     8    1
    16     8     9    1
    17     4    10    1
    18    10    11    1
    19    11    14    1
    20    14    15   ar
    21    15    16   ar
    22    16    17   ar
    23    17    18   ar
    24    18    19   ar
    25    19    20    1
    26    11    12   am
    27    12    13    2
    28    12     2    1
    29     9     4    1
    30    19    14   ar
    31    28    23   ar
@<TRIPOS>MOLECULE
*****
 28 31 0 0 0
SMALL
GASTEIGER

@<TRIPOS>ATOM
      1 C         137.3928  138.1766  167.0667 C.3     1  UNL1        0.0420
      2 C         138.2480  139.3424  166.6670 C.3     1  UNL1        0.1912
      3 O         138.1866  139.8717  165.2649 O.3     1  UNL1       -0.3500
      4 C         139.0419  141.0374  164.8651 C.3     1  UNL1        0.1145
      5 C         139.8971  142.2031  164.4655 C.3     1  UNL1        0.0463
      6 C         139.8357  142.7324  163.0633 C.3     1  UNL1        0.0746
      7 N         138.9191  142.0960  162.0609 N.3     1  UNL1       -0.2722
      8 C         138.0639  140.9303  162.4605 C.3     1  UNL1        0.0746
      9 C         138.1253  140.4010  163.8627 C.3     1  UNL1        0.0463
     10 C         139.9584  141.6738  165.8676 C.3     1  UNL1        0.1254
     11 N         140.0198  141.1444  167.2698 N.am    1  UNL1       -0.2535
     12 C         139.1646  139.9787  167.6695 C.2     1  UNL1        0.2566
     13 O         139.2259  139.4494  169.0717 O.2     1  UNL1       -0.2719
     14 C         140.9363  141.7808  168.2723 C.ar    1  UNL1        0.0645
     15 C         140.4805  142.9793  169.0505 C.ar    1  UNL1        0.0158
     16 C         141.3970  143.6157  170.0529 C.ar    1  UNL1        0.0013
     17 C         142.7695  143.0535  170.2772 C.ar    1  UNL1        0.0009
     18 C         143.2254  141.8549  169.4990 C.ar    1  UNL1        0.0127
     19 C         142.3088  141.2186  168.4965 C.ar    1  UNL1        0.0713
     20 CL        142.7647  140.0200  167.7183 Cl      1  UNL1       -0.0809
     21 C         138.8578  142.6254  160.6587 C.3     1  UNL1        0.0768
     22 C         139.9842  143.4573  160.1211 C.3     1  UNL1        0.0437
     23 C         139.8638  144.1006  158.7714 C.ar    1  UNL1       -0.0208
     24 C         139.1820  143.3720  157.6515 C.ar    1  UNL1       -0.0042
     25 C         139.0616  144.0153  156.3018 C.ar    1  UNL1       -0.0003
     26 C         139.6230  145.3872  156.0721 C.ar    1  UNL1       -0.0000
     27 C         140.3048  146.1158  157.1920 C.ar    1  UNL1       -0.0003
     28 C         140.4252  145.4725  158.5417 C.ar    1  UNL1       -0.0042
@<TRIPOS>BOND
     1     1     2    1
     2     2     3    1
     3     3     4    1
     4     4     5    1
     5     5     6    1
     6     6     7    1
     7     7    21    1
     8    21    22    1
     9    22    23    1
    10    23    24   ar
    11    24    25   ar
    12    25    26   ar
    13    26    27   ar
    14    27    28   ar
    15     7     8    1
    16     8     9    1
    17     4    10    1
    18    10    11    1
    19    11    14    1
    20    14    15   ar
    21    15    16   ar
    22    16    17   ar
    23    17    18   ar
    24    18    19   ar
    25    19    20    1
    26    11    12   am
    27    12    13    2
    28    12     2    1
    29     9     4    1
    30    19    14   ar
    31    28    23   ar
@<TRIPOS>MOLECULE
*****
 28 31 0 0 0
SMALL
GASTEIGER

@<TRIPOS>ATOM
      1 C         137.4109  138.1273  167.0044 C.3     1  UNL1        0.0420
      2 C         138.2546  139.3031  166.6094 C.3     1  UNL1        0.1912
      3 O         138.2062  139.8220  165.2028 O.3     1  UNL1       -0.3500
      4 C         139.0499  140.9978  164.8078 C.3     1  UNL1        0.1145
      5 C         139.8935  142.1734  164.4128 C.3     1  UNL1        0.0463
      6 C         139.8451  142.6924  163.0063 C.3     1  UNL1        0.0746
      7 N         138.9532  142.0357  161.9948 N.3     1  UNL1       -0.2722
      8 C         138.1096  140.8600  162.3898 C.3     1  UNL1        0.0746
      9 C         138.1579  140.3411  163.7963 C.3     1  UNL1        0.0463
     10 C         139.9418  141.6545  165.8193 C.3     1  UNL1        0.1254
     11 N         139.9901  141.1355  167.2259 N.am    1  UNL1       -0.2535
     12 C         139.1465  139.9598  167.6209 C.2     1  UNL1        0.2566
     13 O         139.1948  139.4408  169.0274 O.2     1  UNL1       -0.2719
     14 C         140.8821  141.7922  168.2374 C.ar    1  UNL1        0.0645
     15 C         140.4057  143.0030  168.9835 C.ar    1  UNL1        0.0158
     16 C         141.2976  143.6597  169.9951 C.ar    1  UNL1        0.0013
     17 C         142.6660  143.1056  170.2604 C.ar    1  UNL1        0.0009
     18 C         143.1425  141.8947  169.5142 C.ar    1  UNL1        0.0127
     19 C         142.2505  141.2380  168.5027 C.ar    1  UNL1        0.0713
     20 CL        142.7269  140.0271  167.7565 Cl      1  UNL1       -0.0809
     21 C         138.9049  142.5547  160.5882 C.3     1  UNL1        0.0768
     22 C         140.0797  142.3599  159.6761 C.3     1  UNL1        0.0437
     23 C         140.9774  141.1712  159.8528 C.ar    1  UNL1       -0.0208
     24 C         142.3697  141.3545  160.3798 C.ar    1  UNL1       -0.0042
     25 C         143.2673  140.1658  160.5564 C.ar    1  UNL1       -0.0003
     26 C         142.7726  138.7938  160.2060 C.ar    1  UNL1       -0.0000
     27 C         141.3802  138.6104  159.6790 C.ar    1  UNL1       -0.0003
     28 C         140.4826  139.7991  159.5024 C.ar    1  UNL1       -0.0042
@<TRIPOS>BOND
     1     1     2    1
     2     2     3    1
     3     3     4    1
     4     4     5    1
     5     5     6    1
     6     6     7    1
     7     7    21    1
     8    21    22    1
     9    22    23    1
    10    23    24   ar
    11    24    25   ar
    12    25    26   ar
    13    26    27   ar
    14    27    28   ar
    15     7     8    1
    16     8     9    1
    17     4    10    1
    18    10    11    1
    19    11    14    1
    20    14    15   ar
    21    15    16   ar
    22    16    17   ar
    23    17    18   ar
    24    18    19   ar
    25    19    20    1
    26    11    12   am
    27    12    13    2
    28    12     2    1
    29     9     4    1
    30    19    14   ar
    31    28    23   ar
@<TRIPOS>MOLECULE
*****
 28 31 0 0 0
SMALL
GASTEIGER

@<TRIPOS>ATOM
      1 C         137.1081  137.9338  167.3730 C.3     1  UNL1        0.0420
      2 C         138.2224  138.8006  166.8660 C.3     1  UNL1        0.1912
      3 O         138.5424  138.8302  165.4009 O.3     1  UNL1       -0.3500
      4 C         139.6568  139.6970  164.8939 C.3     1  UNL1        0.1145
      5 C         140.7710  140.5639  164.3870 C.3     1  UNL1        0.0463
      6 C         141.0910  140.5935  162.9219 C.3     1  UNL1        0.0746
      7 N         140.2968  139.7563  161.9636 N.3     1  UNL1       -0.2722
      8 C         139.1825  138.8895  162.4705 C.3     1  UNL1        0.0746
      9 C         138.8625  138.8598  163.9357 C.3     1  UNL1        0.0463
     10 C         140.4510  140.5343  165.8521 C.3     1  UNL1        0.1254
     11 N         140.1310  140.5046  167.3173 N.am    1  UNL1       -0.2535
     12 C         139.0167  139.6378  167.8242 C.2     1  UNL1        0.2566
     13 O         138.6966  139.6082  169.2895 O.2     1  UNL1       -0.2719
     14 C         140.9252  141.3418  168.2756 C.ar    1  UNL1        0.0645
     15 C         140.4010  142.6754  168.7191 C.ar    1  UNL1        0.0158
     16 C         141.1952  143.5126  169.6773 C.ar    1  UNL1        0.0013
     17 C         142.5138  143.0162  170.1921 C.ar    1  UNL1        0.0009
     18 C         143.0381  141.6826  169.7486 C.ar    1  UNL1        0.0127
     19 C         142.2438  140.8454  168.7904 C.ar    1  UNL1        0.0713
     20 CL        142.7681  139.5118  168.3469 Cl      1  UNL1       -0.0809
     21 C         140.6168  139.7859  160.4984 C.3     1  UNL1        0.0768
     22 C         139.8661  138.9003  159.5487 C.3     1  UNL1        0.0437
     23 C         139.1736  139.4940  158.3578 C.ar    1  UNL1       -0.0208
     24 C         139.5230  139.0256  156.9764 C.ar    1  UNL1       -0.0042
     25 C         138.8306  139.6193  155.7856 C.ar    1  UNL1       -0.0003
     26 C         137.7887  140.6815  155.9763 C.ar    1  UNL1       -0.0000
     27 C         137.4393  141.1499  157.3578 C.ar    1  UNL1       -0.0003
     28 C         138.1318  140.5562  158.5485 C.ar    1  UNL1       -0.0042
@<TRIPOS>BOND
     1     1     2    1
     2     2     3    1
     3     3     4    1
     4     4     5    1
     5     5     6    1
     6     6     7    1
     7     7    21    1
     8    21    22    1
     9    22    23    1
    10    23    24   ar
    11    24    25   ar
    12    25    26   ar
    13    26    27   ar
    14    27    28   ar
    15     7     8    1
    16     8     9    1
    17     4    10    1
    18    10    11    1
    19    11    14    1
    20    14    15   ar
    21    15    16   ar
    22    16    17   ar
    23    17    18   ar
    24    18    19   ar
    25    19    20    1
    26    11    12   am
    27    12    13    2
    28    12     2    1
    29     9     4    1
    30    19    14   ar
    31    28    23   ar
@<TRIPOS>MOLECULE
*****
 28 31 0 0 0
SMALL
GASTEIGER

@<TRIPOS>ATOM
      1 C         139.2199  144.8961  164.5254 C.3     1  UNL1        0.0420
      2 C         140.2043  144.3622  163.5273 C.3     1  UNL1        0.1912
      3 O         140.1741  144.8503  162.1093 O.3     1  UNL1       -0.3500
      4 C         141.1585  144.3165  161.1112 C.3     1  UNL1        0.1145
      5 C         142.1428  143.7826  160.1132 C.3     1  UNL1        0.0463
      6 C         142.1127  144.2707  158.6952 C.3     1  UNL1        0.0746
      7 N         141.0982  145.2927  158.2752 N.3     1  UNL1       -0.2722
      8 C         140.1138  145.8265  159.2732 C.3     1  UNL1        0.0746
      9 C         140.1440  145.3384  160.6912 C.3     1  UNL1        0.0463
     10 C         142.1730  143.2945  161.5313 C.3     1  UNL1        0.1254
     11 N         142.2031  142.8064  162.9494 N.am    1  UNL1       -0.2535
     12 C         141.2188  143.3403  163.9474 C.2     1  UNL1        0.2566
     13 O         141.2489  142.8522  165.3655 O.2     1  UNL1       -0.2719
     14 C         143.2176  141.7845  163.3694 C.ar    1  UNL1        0.0645
     15 C         144.6268  142.2044  163.6659 C.ar    1  UNL1        0.0158
     16 C         145.6412  141.1824  164.0859 C.ar    1  UNL1        0.0013
     17 C         145.2466  139.7406  164.2094 C.ar    1  UNL1        0.0009
     18 C         143.8374  139.3206  163.9129 C.ar    1  UNL1        0.0127
     19 C         142.8229  140.3426  163.4929 C.ar    1  UNL1        0.0713
     20 CL        141.4138  139.9227  163.1964 Cl      1  UNL1       -0.0809
     21 C         141.0681  145.7808  156.8571 C.3     1  UNL1        0.0768
     22 C         139.7607  146.1388  156.2148 C.3     1  UNL1        0.0437
     23 C         139.4824  147.5593  155.8214 C.ar    1  UNL1       -0.0208
     24 C         138.7117  148.4559  156.7445 C.ar    1  UNL1       -0.0042
     25 C         138.4335  149.8764  156.3512 C.ar    1  UNL1       -0.0003
     26 C         138.9259  150.4003  155.0347 C.ar    1  UNL1       -0.0000
     27 C         139.6966  149.5037  154.1116 C.ar    1  UNL1       -0.0003
     28 C         139.9748  148.0832  154.5050 C.ar    1  UNL1       -0.0042
@<TRIPOS>BOND
     1     1     2    1
     2     2     3    1
     3     3     4    1
     4     4     5    1
     5     5     6    1
     6     6     7    1
     7     7    21    1
     8    21    22    1
     9    22    23    1
    10    23    24   ar
    11    24    25   ar
    12    25    26   ar
    13    26    27   ar
    14    27    28   ar
    15     7     8    1
    16     8     9    1
    17     4    10    1
    18    10    11    1
    19    11    14    1
    20    14    15   ar
    21    15    16   ar
    22    16    17   ar
    23    17    18   ar
    24    18    19   ar
    25    19    20    1
    26    11    12   am
    27    12    13    2
    28    12     2    1
    29     9     4    1
    30    19    14   ar
    31    28    23   ar
@<TRIPOS>MOLECULE
*****
 28 31 0 0 0
SMALL
GASTEIGER

@<TRIPOS>ATOM
      1 C         143.7794  138.7505  165.2497 C.3     1  UNL1        0.0420
      2 C         142.8479  139.3368  164.2305 C.3     1  UNL1        0.1912
      3 O         142.8191  138.7856  162.8358 O.3     1  UNL1       -0.3500
      4 C         141.8876  139.3719  161.8167 C.3     1  UNL1        0.1145
      5 C         140.9561  139.9583  160.7976 C.3     1  UNL1        0.0463
      6 C         140.9273  139.4071  159.4029 C.3     1  UNL1        0.0746
      7 N         141.8299  138.2694  159.0273 N.3     1  UNL1       -0.2722
      8 C         142.7614  137.6831  160.0463 C.3     1  UNL1        0.0746
      9 C         142.7902  138.2343  161.4410 C.3     1  UNL1        0.0463
     10 C         140.9850  140.5096  162.1923 C.3     1  UNL1        0.1254
     11 N         141.0138  141.0608  163.5871 N.am    1  UNL1       -0.2535
     12 C         141.9453  140.4745  164.6061 C.2     1  UNL1        0.2566
     13 O         141.9741  141.0257  166.0009 O.2     1  UNL1       -0.2719
     14 C         140.1112  142.1984  163.9627 C.ar    1  UNL1        0.0645
     15 C         140.6508  143.5969  164.0190 C.ar    1  UNL1        0.0158
     16 C         139.7481  144.7345  164.3946 C.ar    1  UNL1        0.0013
     17 C         138.3060  144.4737  164.7140 C.ar    1  UNL1        0.0009
     18 C         137.7663  143.0752  164.6578 C.ar    1  UNL1        0.0127
     19 C         138.6690  141.9376  164.2821 C.ar    1  UNL1        0.0713
     20 CL        138.1294  140.5391  164.2259 Cl      1  UNL1       -0.0809
     21 C         141.8011  137.7182  157.6325 C.3     1  UNL1        0.0768
     22 C         142.9294  136.8603  157.1416 C.3     1  UNL1        0.0437
     23 C         142.6663  135.4460  156.7167 C.ar    1  UNL1       -0.0208
     24 C         141.6594  135.1606  155.6421 C.ar    1  UNL1       -0.0042
     25 C         141.3963  133.7463  155.2173 C.ar    1  UNL1       -0.0003
     26 C         142.1402  132.6174  155.8670 C.ar    1  UNL1       -0.0000
     27 C         143.1471  132.9027  156.9416 C.ar    1  UNL1       -0.0003
     28 C         143.4101  134.3170  157.3664 C.ar    1  UNL1       -0.0042
@<TRIPOS>BOND
     1     1     2    1
     2     2     3    1
     3     3     4    1
     4     4     5    1
     5     5     6    1
     6     6     7    1
     7     7    21    1
     8    21    22    1
     9    22    23    1
    10    23    24   ar
    11    24    25   ar
    12    25    26   ar
    13    26    27   ar
    14    27    28   ar
    15     7     8    1
    16     8     9    1
    17     4    10    1
    18    10    11    1
    19    11    14    1
    20    14    15   ar
    21    15    16   ar
    22    16    17   ar
    23    17    18   ar
    24    18    19   ar
    25    19    20    1
    26    11    12   am
    27    12    13    2
    28    12     2    1
    29     9     4    1
    30    19    14   ar
    31    28    23   ar
@<TRIPOS>MOLECULE
*****
 28 31 0 0 0
SMALL
GASTEIGER

@<TRIPOS>ATOM
      1 C         138.4527  144.8706  165.6911 C.3     1  UNL1        0.0420
      2 C         139.3574  144.1544  164.7326 C.3     1  UNL1        0.1912
      3 O         139.5737  144.7026  163.3533 O.3     1  UNL1       -0.3500
      4 C         140.4784  143.9863  162.3948 C.3     1  UNL1        0.1145
      5 C         141.3830  143.2700  161.4364 C.3     1  UNL1        0.0463
      6 C         141.5993  143.8182  160.0571 C.3     1  UNL1        0.0746
      7 N         140.9109  145.0827  159.6361 N.3     1  UNL1       -0.2722
      8 C         140.0063  145.7990  160.5945 C.3     1  UNL1        0.0746
      9 C         139.7900  145.2508  161.9739 C.3     1  UNL1        0.0463
     10 C         141.1667  142.7218  162.8158 C.3     1  UNL1        0.1254
     11 N         140.9504  142.1736  164.1952 N.am    1  UNL1       -0.2535
     12 C         140.0457  142.8898  165.1536 C.2     1  UNL1        0.2566
     13 O         139.8294  142.3416  166.5330 O.2     1  UNL1       -0.2719
     14 C         141.6387  140.9090  164.6162 C.ar    1  UNL1        0.0645
     15 C         140.9992  139.5801  164.3424 C.ar    1  UNL1        0.0158
     16 C         141.6875  138.3156  164.7634 C.ar    1  UNL1        0.0013
     17 C         143.0153  138.3800  165.4581 C.ar    1  UNL1        0.0009
     18 C         143.6549  139.7090  165.7318 C.ar    1  UNL1        0.0127
     19 C         142.9666  140.9735  165.3109 C.ar    1  UNL1        0.0713
     20 CL        143.6061  142.3024  165.5846 Cl      1  UNL1       -0.0809
     21 C         141.1273  145.6310  158.2567 C.3     1  UNL1        0.0768
     22 C         140.0306  145.5491  157.2366 C.3     1  UNL1        0.0437
     23 C         139.8865  146.6258  156.2022 C.ar    1  UNL1       -0.0208
     24 C         140.6354  146.5261  154.9064 C.ar    1  UNL1       -0.0042
     25 C         140.4913  147.6028  153.8721 C.ar    1  UNL1       -0.0003
     26 C         139.5983  148.7793  154.1336 C.ar    1  UNL1       -0.0000
     27 C         138.8494  148.8791  155.4294 C.ar    1  UNL1       -0.0003
     28 C         138.9935  147.8023  156.4637 C.ar    1  UNL1       -0.0042
@<TRIPOS>BOND
     1     1     2    1
     2     2     3    1
     3     3     4    1
     4     4     5    1
     5     5     6    1
     6     6     7    1
     7     7    21    1
     8    21    22    1
     9    22    23    1
    10    23    24   ar
    11    24    25   ar
    12    25    26   ar
    13    26    27   ar
    14    27    28   ar
    15     7     8    1
    16     8     9    1
    17     4    10    1
    18    10    11    1
    19    11    14    1
    20    14    15   ar
    21    15    16   ar
    22    16    17   ar
    23    17    18   ar
    24    18    19   ar
    25    19    20    1
    26    11    12   am
    27    12    13    2
    28    12     2    1
    29     9     4    1
    30    19    14   ar
    31    28    23   ar
@<TRIPOS>MOLECULE
*****
 28 31 0 0 0
SMALL
GASTEIGER

@<TRIPOS>ATOM
      1 C         140.9424  145.3133  158.6803 C.3     1  UNL1        0.0420
      2 C         142.0550  144.4110  159.1254 C.3     1  UNL1        0.1912
      3 O         142.2579  144.1346  160.5857 O.3     1  UNL1       -0.3500
      4 C         143.3704  143.2322  161.0307 C.3     1  UNL1        0.1145
      5 C         144.4830  142.3300  161.4758 C.3     1  UNL1        0.0463
      6 C         144.6858  142.0535  162.9360 C.3     1  UNL1        0.0746
      7 N         143.7761  142.6794  163.9513 N.3     1  UNL1       -0.2722
      8 C         142.6636  143.5817  163.5063 C.3     1  UNL1        0.0746
      9 C         142.4608  143.8581  162.0460 C.3     1  UNL1        0.0463
     10 C         144.2801  142.6064  160.0155 C.3     1  UNL1        0.1254
     11 N         144.0772  142.8828  158.5552 N.am    1  UNL1       -0.2535
     12 C         142.9647  143.7851  158.1102 C.2     1  UNL1        0.2566
     13 O         142.7618  144.0616  156.6498 O.2     1  UNL1       -0.2719
     14 C         144.9869  142.2569  157.5399 C.ar    1  UNL1        0.0645
     15 C         146.3346  142.8573  157.2692 C.ar    1  UNL1        0.0158
     16 C         147.2442  142.2314  156.2540 C.ar    1  UNL1        0.0013
     17 C         146.8063  141.0051  155.5094 C.ar    1  UNL1        0.0009
     18 C         145.4585  140.4047  155.7801 C.ar    1  UNL1        0.0127
     19 C         144.5489  141.0306  156.7953 C.ar    1  UNL1        0.0713
     20 CL        143.2012  140.4302  157.0660 Cl      1  UNL1       -0.0809
     21 C         143.9791  142.4030  165.4116 C.3     1  UNL1        0.0768
     22 C         142.9553  141.6165  166.1753 C.3     1  UNL1        0.0437
     23 C         142.3927  142.1609  167.4549 C.ar    1  UNL1       -0.0208
     24 C         140.9505  142.5666  167.5274 C.ar    1  UNL1       -0.0042
     25 C         140.3880  143.1110  168.8069 C.ar    1  UNL1       -0.0003
     26 C         141.2677  143.2496  170.0139 C.ar    1  UNL1       -0.0000
     27 C         142.7099  142.8439  169.9414 C.ar    1  UNL1       -0.0003
     28 C         143.2724  142.2995  168.6619 C.ar    1  UNL1       -0.0042
@<TRIPOS>BOND
     1     1     2    1
     2     2     3    1
     3     3     4    1
     4     4     5    1
     5     5     6    1
     6     6     7    1
     7     7    21    1
     8    21    22    1
     9    22    23    1
    10    23    24   ar
    11    24    25   ar
    12    25    26   ar
    13    26    27   ar
    14    27    28   ar
    15     7     8    1
    16     8     9    1
    17     4    10    1
    18    10    11    1
    19    11    14    1
    20    14    15   ar
    21    15    16   ar
    22    16    17   ar
    23    17    18   ar
    24    18    19   ar
    25    19    20    1
    26    11    12   am
    27    12    13    2
    28    12     2    1
    29     9     4    1
    30    19    14   ar
    31    28    23   ar
@<TRIPOS>MOLECULE
*****
 28 31 0 0 0
SMALL
GASTEIGER

@<TRIPOS>ATOM
      1 C         138.4407  141.1508  160.1583 C.3     1  UNL1        0.0420
      2 C         139.7544  140.4362  160.0417 C.3     1  UNL1        0.1912
      3 O         139.9732  139.4440  158.9383 O.3     1  UNL1       -0.3500
      4 C         141.2869  138.7294  158.8217 C.3     1  UNL1        0.1145
      5 C         142.6006  138.0149  158.7052 C.3     1  UNL1        0.0463
      6 C         142.8194  137.0227  157.6017 C.3     1  UNL1        0.0746
      7 N         141.7244  136.7451  156.6148 N.3     1  UNL1       -0.2722
      8 C         140.4107  137.4596  156.7313 C.3     1  UNL1        0.0746
      9 C         140.1920  138.4518  157.8348 C.3     1  UNL1        0.0463
     10 C         142.3818  139.0071  159.8087 C.3     1  UNL1        0.1254
     11 N         142.1630  139.9993  160.9122 N.am    1  UNL1       -0.2535
     12 C         140.8493  140.7139  161.0287 C.2     1  UNL1        0.2566
     13 O         140.6305  141.7061  162.1322 O.2     1  UNL1       -0.2719
     14 C         143.2579  140.2770  161.8991 C.ar    1  UNL1        0.0645
     15 C         144.1715  141.4491  161.6957 C.ar    1  UNL1        0.0158
     16 C         145.2664  141.7268  162.6827 C.ar    1  UNL1        0.0013
     17 C         145.4478  140.8322  163.8730 C.ar    1  UNL1        0.0009
     18 C         144.5342  139.6600  164.0764 C.ar    1  UNL1        0.0127
     19 C         143.4393  139.3824  163.0895 C.ar    1  UNL1        0.0713
     20 CL        142.5257  138.2102  163.2928 Cl      1  UNL1       -0.0809
     21 C         141.9433  135.7529  155.5113 C.3     1  UNL1        0.0768
     22 C         141.7264  134.2903  155.7639 C.3     1  UNL1        0.0437
     23 C         142.8833  133.4158  156.1472 C.ar    1  UNL1       -0.0208
     24 C         143.3366  132.3241  155.2238 C.ar    1  UNL1       -0.0042
     25 C         144.4934  131.4497  155.6072 C.ar    1  UNL1       -0.0003
     26 C         145.1970  131.6669  156.9141 C.ar    1  UNL1       -0.0000
     27 C         144.7438  132.7586  157.8375 C.ar    1  UNL1       -0.0003
     28 C         143.5869  133.6330  157.4541 C.ar    1  UNL1       -0.0042
@<TRIPOS>BOND
     1     1     2    1
     2     2     3    1
     3     3     4    1
     4     4     5    1
     5     5     6    1
     6     6     7    1
     7     7    21    1
     8    21    22    1
     9    22    23    1
    10    23    24   ar
    11    24    25   ar
    12    25    26   ar
    13    26    27   ar
    14    27    28   ar
    15     7     8    1
    16     8     9    1
    17     4    10    1
    18    10    11    1
    19    11    14    1
    20    14    15   ar
    21    15    16   ar
    22    16    17   ar
    23    17    18   ar
    24    18    19   ar
    25    19    20    1
    26    11    12   am
    27    12    13    2
    28    12     2    1
    29     9     4    1
    30    19    14   ar
    31    28    23   ar
