@<TRIPOS>MOLECULE
*****
 37 41 0 0 0
SMALL
GASTEIGER

@<TRIPOS>ATOM
      1 N         140.4924  139.8624  164.5274 N.am    1  UNL1       -0.2681
      2 C         140.8563  138.7153  163.6321 C.2     1  UNL1        0.3079
      3 O         140.4194  137.3235  163.9813 O.2     1  UNL1       -0.2522
      4 N         141.6573  138.9599  162.3877 N.am    1  UNL1       -0.2594
      5 C         142.0212  137.8128  161.4924 C.3     1  UNL1        0.1016
      6 C         142.8222  138.0575  160.2480 C.3     1  UNL1        0.0672
      7 C         143.2591  139.4493  159.8988 C.ar    1  UNL1        0.0614
      8 N         144.0601  139.6940  158.6543 N.ar    1  UNL1       -0.2310
      9 C         144.4971  141.0858  158.3052 C.ar    1  UNL1        0.1648
     10 N         144.1331  142.2329  159.2006 N.ar    1  UNL1       -0.2267
     11 C         143.3322  141.9883  160.4450 C.ar    1  UNL1        0.0814
     12 C         142.8952  140.5964  160.7941 C.ar    1  UNL1        0.0291
     13 C         142.0943  140.3518  162.0385 C.3     1  UNL1        0.1243
     14 H         140.7792  140.7759  164.2983 H       1  UNL1        0.1564
     15 C         142.9683  143.1354  161.3403 C.ar    1  UNL1        0.0135
     16 C         143.9357  143.6080  162.3846 C.ar    1  UNL1        0.0012
     17 C         143.5717  144.7552  163.2800 C.ar    1  UNL1        0.0000
     18 C         142.2403  145.4297  163.1309 C.ar    1  UNL1       -0.0003
     19 C         141.2729  144.9572  162.0865 C.ar    1  UNL1       -0.0042
     20 C         141.6368  143.8100  161.1912 C.ar    1  UNL1       -0.0204
     21 C         140.6693  143.3375  160.1469 C.3     1  UNL1        0.0311
     22 C         139.3541  139.9326  168.3287 C.ar    1  UNL1       -0.0210
     23 C         138.0897  139.1286  168.2608 C.ar    1  UNL1       -0.0042
     24 C         137.6261  138.5692  166.9485 C.ar    1  UNL1        0.0010
     25 C         138.4270  138.8138  165.7041 C.ar    1  UNL1        0.0147
     26 C         139.6914  139.6178  165.7719 C.ar    1  UNL1        0.0513
     27 C         140.1550  140.1772  167.0842 C.ar    1  UNL1        0.0104
     28 C         139.9321  141.9762  169.8252 C.3     1  UNL1        0.0050
     29 C         139.8177  140.4920  169.6410 C.3     1  UNL1        0.0264
     30 C         145.2980  141.3305  157.0608 C.ar    1  UNL1        0.0741
     31 C         145.0398  140.5130  155.8298 C.ar    1  UNL1        0.1058
     32 N         145.8407  140.7577  154.5854 N.ar    1  UNL1       -0.2162
     33 C         146.8999  141.8198  154.5719 C.ar    1  UNL1        0.2331
     34 N         147.1581  142.6372  155.8028 N.ar    1  UNL1       -0.2162
     35 C         146.3571  142.3926  157.0473 C.ar    1  UNL1        0.1058
     36 C         147.7008  142.0645  153.3275 C.1     1  UNL1        0.1399
     37 N         148.5017  142.3092  152.0830 N.1     1  UNL1       -0.1876
@<TRIPOS>BOND
     1    28    29    1
     2    29    22    1
     3    22    23   ar
     4    23    24   ar
     5    24    25   ar
     6    25    26   ar
     7    26     1    1
     8     1     2   am
     9     2     3    2
    10     2     4   am
    11     4     5    1
    12     5     6    1
    13     6     7    1
    14     7     8   ar
    15     8     9   ar
    16     9    30    1
    17    30    31   ar
    18    31    32   ar
    19    32    33   ar
    20    33    36    1
    21    36    37    3
    22    33    34   ar
    23    34    35   ar
    24     9    10   ar
    25    10    11   ar
    26    11    15    1
    27    15    16   ar
    28    16    17   ar
    29    17    18   ar
    30    18    19   ar
    31    19    20   ar
    32    20    21    1
    33    11    12   ar
    34    12    13    1
    35    26    27   ar
    36    27    22   ar
    37    13     4    1
    38    12     7   ar
    39    35    30   ar
    40    20    15   ar
    41     1    14    1
@<TRIPOS>MOLECULE
*****
 37 41 0 0 0
SMALL
GASTEIGER

@<TRIPOS>ATOM
      1 N         141.6572  141.4888  165.9138 N.am    1  UNL1       -0.2681
      2 C         140.5601  142.4788  165.6566 C.2     1  UNL1        0.3079
      3 O         140.0388  143.3286  166.7773 O.2     1  UNL1       -0.2522
      4 N         139.9842  142.6190  164.2786 N.am    1  UNL1       -0.2594
      5 C         138.8871  143.6090  164.0214 C.3     1  UNL1        0.1016
      6 C         138.3113  143.7491  162.6434 C.3     1  UNL1        0.0672
      7 C         138.8326  142.8993  161.5227 C.ar    1  UNL1        0.0614
      8 N         138.2567  143.0395  160.1447 N.ar    1  UNL1       -0.2310
      9 C         138.7780  142.1897  159.0240 C.ar    1  UNL1        0.1648
     10 N         139.8752  141.1996  159.2813 N.ar    1  UNL1       -0.2267
     11 C         140.4510  141.0595  160.6592 C.ar    1  UNL1        0.0814
     12 C         139.9297  141.9093  161.7799 C.ar    1  UNL1        0.0291
     13 C         140.5055  141.7691  163.1579 C.3     1  UNL1        0.1243
     14 H         141.9993  140.9310  165.1782 H       1  UNL1        0.1564
     15 C         141.5481  140.0695  160.9164 C.ar    1  UNL1        0.0135
     16 C         141.2120  138.6725  161.3473 C.ar    1  UNL1        0.0012
     17 C         142.3092  137.6825  161.6045 C.ar    1  UNL1        0.0000
     18 C         143.7424  138.0895  161.4308 C.ar    1  UNL1       -0.0003
     19 C         144.0785  139.4864  161.0000 C.ar    1  UNL1       -0.0042
     20 C         142.9814  140.4764  160.7428 C.ar    1  UNL1       -0.0204
     21 C         143.3175  141.8733  160.3119 C.3     1  UNL1        0.0311
     22 C         142.5453  139.9674  169.4700 C.ar    1  UNL1       -0.0210
     23 C         143.3848  141.0681  170.0476 C.ar    1  UNL1       -0.0042
     24 C         143.6484  142.3091  169.2473 C.ar    1  UNL1        0.0010
     25 C         143.0726  142.4493  167.8694 C.ar    1  UNL1        0.0147
     26 C         142.2331  141.3486  167.2918 C.ar    1  UNL1        0.0513
     27 C         141.9695  140.1076  168.0921 C.ar    1  UNL1        0.0104
     28 C         143.3204  137.6470  170.3444 C.3     1  UNL1        0.0050
     29 C         142.2816  138.7265  170.2703 C.3     1  UNL1        0.0264
     30 C         138.2022  142.3298  157.6461 C.ar    1  UNL1        0.0741
     31 C         138.6395  143.4599  156.7618 C.ar    1  UNL1        0.1058
     32 N         138.0636  143.6000  155.3839 N.ar    1  UNL1       -0.2162
     33 C         137.0505  142.6102  154.8901 C.ar    1  UNL1        0.2331
     34 N         136.6132  141.4802  155.7743 N.ar    1  UNL1       -0.2162
     35 C         137.1890  141.3400  157.1523 C.ar    1  UNL1        0.1058
     36 C         136.4747  142.7503  153.5122 C.1     1  UNL1        0.1399
     37 N         135.8989  142.8905  152.1342 N.1     1  UNL1       -0.1876
@<TRIPOS>BOND
     1    28    29    1
     2    29    22    1
     3    22    23   ar
     4    23    24   ar
     5    24    25   ar
     6    25    26   ar
     7    26     1    1
     8     1     2   am
     9     2     3    2
    10     2     4   am
    11     4     5    1
    12     5     6    1
    13     6     7    1
    14     7     8   ar
    15     8     9   ar
    16     9    30    1
    17    30    31   ar
    18    31    32   ar
    19    32    33   ar
    20    33    36    1
    21    36    37    3
    22    33    34   ar
    23    34    35   ar
    24     9    10   ar
    25    10    11   ar
    26    11    15    1
    27    15    16   ar
    28    16    17   ar
    29    17    18   ar
    30    18    19   ar
    31    19    20   ar
    32    20    21    1
    33    11    12   ar
    34    12    13    1
    35    26    27   ar
    36    27    22   ar
    37    13     4    1
    38    12     7   ar
    39    35    30   ar
    40    20    15   ar
    41     1    14    1
@<TRIPOS>MOLECULE
*****
 37 41 0 0 0
SMALL
GASTEIGER

@<TRIPOS>ATOM
      1 N         141.6263  141.0191  165.9264 N.am    1  UNL1       -0.2681
      2 C         142.4690  142.2219  165.6213 C.2     1  UNL1        0.3079
      3 O         143.3734  142.7906  166.6742 O.2     1  UNL1       -0.2522
      4 N         142.4074  142.8560  164.2633 N.am    1  UNL1       -0.2594
      5 C         143.2501  144.0588  163.9582 C.3     1  UNL1        0.1016
      6 C         143.1885  144.6928  162.6003 C.3     1  UNL1        0.0672
      7 C         142.2841  144.1241  161.5474 C.ar    1  UNL1        0.0614
      8 N         142.2224  144.7582  160.1893 N.ar    1  UNL1       -0.2310
      9 C         141.3180  144.1895  159.1364 C.ar    1  UNL1        0.1648
     10 N         140.4753  142.9866  159.4415 N.ar    1  UNL1       -0.2267
     11 C         140.5369  142.3526  160.7995 C.ar    1  UNL1        0.0814
     12 C         141.4413  142.9213  161.8524 C.ar    1  UNL1        0.0291
     13 C         141.5030  142.2873  163.2104 C.3     1  UNL1        0.1243
     14 H         141.0327  140.6459  165.2353 H       1  UNL1        0.1564
     15 C         139.6942  141.1498  161.1046 C.ar    1  UNL1        0.0135
     16 C         140.1876  139.7786  160.7491 C.ar    1  UNL1        0.0012
     17 C         139.3448  138.5758  161.0542 C.ar    1  UNL1        0.0000
     18 C         138.0086  138.7443  161.7147 C.ar    1  UNL1       -0.0003
     19 C         137.5152  140.1155  162.0702 C.ar    1  UNL1       -0.0042
     20 C         138.3580  141.3182  161.7651 C.ar    1  UNL1       -0.0204
     21 C         137.8646  142.6895  162.1205 C.3     1  UNL1        0.0311
     22 C         140.6590  140.0072  169.6399 C.ar    1  UNL1       -0.0210
     23 C         141.8111  139.1169  170.0004 C.ar    1  UNL1       -0.0042
     24 C         142.9016  138.8607  169.0028 C.ar    1  UNL1        0.0010
     25 C         142.8400  139.4947  167.6449 C.ar    1  UNL1        0.0147
     26 C         141.6879  140.3850  167.2844 C.ar    1  UNL1        0.0513
     27 C         140.5974  140.6412  168.2820 C.ar    1  UNL1        0.0104
     28 C         138.1533  139.8845  170.3155 C.3     1  UNL1        0.0050
     29 C         139.5685  140.2634  170.6375 C.3     1  UNL1        0.0264
     30 C         141.2564  144.8235  157.7784 C.ar    1  UNL1        0.0741
     31 C         140.2343  145.8832  157.4912 C.ar    1  UNL1        0.1058
     32 N         140.1726  146.5172  156.1332 N.ar    1  UNL1       -0.2162
     33 C         141.1330  146.0917  155.0624 C.ar    1  UNL1        0.2331
     34 N         142.1551  145.0320  155.3496 N.ar    1  UNL1       -0.2162
     35 C         142.2168  144.3979  156.7077 C.ar    1  UNL1        0.1058
     36 C         141.0713  146.7257  153.7045 C.1     1  UNL1        0.1399
     37 N         141.0097  147.3598  152.3464 N.1     1  UNL1       -0.1876
@<TRIPOS>BOND
     1    28    29    1
     2    29    22    1
     3    22    23   ar
     4    23    24   ar
     5    24    25   ar
     6    25    26   ar
     7    26     1    1
     8     1     2   am
     9     2     3    2
    10     2     4   am
    11     4     5    1
    12     5     6    1
    13     6     7    1
    14     7     8   ar
    15     8     9   ar
    16     9    30    1
    17    30    31   ar
    18    31    32   ar
    19    32    33   ar
    20    33    36    1
    21    36    37    3
    22    33    34   ar
    23    34    35   ar
    24     9    10   ar
    25    10    11   ar
    26    11    15    1
    27    15    16   ar
    28    16    17   ar
    29    17    18   ar
    30    18    19   ar
    31    19    20   ar
    32    20    21    1
    33    11    12   ar
    34    12    13    1
    35    26    27   ar
    36    27    22   ar
    37    13     4    1
    38    12     7   ar
    39    35    30   ar
    40    20    15   ar
    41     1    14    1
@<TRIPOS>MOLECULE
*****
 37 41 0 0 0
SMALL
GASTEIGER

@<TRIPOS>ATOM
      1 N         140.8188  140.2983  165.7592 N.am    1  UNL1       -0.2681
      2 C         139.8274  139.4124  165.0649 C.2     1  UNL1        0.3079
      3 O         139.3137  138.1807  165.7498 O.2     1  UNL1       -0.2522
      4 N         139.3496  139.7581  163.6857 N.am    1  UNL1       -0.2594
      5 C         138.3581  138.8721  162.9914 C.3     1  UNL1        0.1016
      6 C         137.8803  139.2179  161.6123 C.3     1  UNL1        0.0672
      7 C         138.3940  140.4495  160.9274 C.ar    1  UNL1        0.0614
      8 N         137.9162  140.7953  159.5481 N.ar    1  UNL1       -0.2310
      9 C         138.4298  142.0269  158.8632 C.ar    1  UNL1        0.1648
     10 N         139.4213  142.9129  159.5576 N.ar    1  UNL1       -0.2267
     11 C         139.8991  142.5672  160.9367 C.ar    1  UNL1        0.0814
     12 C         139.3854  141.3355  161.6216 C.ar    1  UNL1        0.0291
     13 C         139.8632  140.9898  163.0008 C.3     1  UNL1        0.1243
     14 H         141.1560  141.1067  165.3097 H       1  UNL1        0.1564
     15 C         140.8906  143.4532  161.6310 C.ar    1  UNL1        0.0135
     16 C         142.3610  143.2315  161.4345 C.ar    1  UNL1        0.0012
     17 C         143.3525  144.1175  162.1288 C.ar    1  UNL1        0.0000
     18 C         142.8735  145.2252  163.0196 C.ar    1  UNL1       -0.0003
     19 C         141.4030  145.4469  163.2161 C.ar    1  UNL1       -0.0042
     20 C         140.4116  144.5609  162.5219 C.ar    1  UNL1       -0.0204
     21 C         138.9411  144.7826  162.7184 C.3     1  UNL1        0.0311
     22 C         141.0078  140.0793  169.7173 C.ar    1  UNL1       -0.0210
     23 C         142.2522  139.2613  169.8968 C.ar    1  UNL1       -0.0042
     24 C         143.0189  138.7890  168.6972 C.ar    1  UNL1        0.0010
     25 C         142.5411  139.1347  167.3180 C.ar    1  UNL1        0.0147
     26 C         141.2967  139.9526  167.1385 C.ar    1  UNL1        0.0513
     27 C         140.5300  140.4249  168.3381 C.ar    1  UNL1        0.0104
     28 C         140.4271  141.9515  171.4225 C.3     1  UNL1        0.0050
     29 C         140.2411  140.5516  170.9169 C.3     1  UNL1        0.0264
     30 C         137.9521  142.3727  157.4840 C.ar    1  UNL1        0.0741
     31 C         136.8738  141.5550  156.8369 C.ar    1  UNL1        0.1058
     32 N         136.3960  141.9007  155.4577 N.ar    1  UNL1       -0.2162
     33 C         136.9964  143.0641  154.7256 C.ar    1  UNL1        0.2331
     34 N         138.0747  143.8818  155.3727 N.ar    1  UNL1       -0.2162
     35 C         138.5525  143.5361  156.7520 C.ar    1  UNL1        0.1058
     36 C         136.5187  143.4098  153.3465 C.1     1  UNL1        0.1399
     37 N         136.0408  143.7556  151.9672 N.1     1  UNL1       -0.1876
@<TRIPOS>BOND
     1    28    29    1
     2    29    22    1
     3    22    23   ar
     4    23    24   ar
     5    24    25   ar
     6    25    26   ar
     7    26     1    1
     8     1     2   am
     9     2     3    2
    10     2     4   am
    11     4     5    1
    12     5     6    1
    13     6     7    1
    14     7     8   ar
    15     8     9   ar
    16     9    30    1
    17    30    31   ar
    18    31    32   ar
    19    32    33   ar
    20    33    36    1
    21    36    37    3
    22    33    34   ar
    23    34    35   ar
    24     9    10   ar
    25    10    11   ar
    26    11    15    1
    27    15    16   ar
    28    16    17   ar
    29    17    18   ar
    30    18    19   ar
    31    19    20   ar
    32    20    21    1
    33    11    12   ar
    34    12    13    1
    35    26    27   ar
    36    27    22   ar
    37    13     4    1
    38    12     7   ar
    39    35    30   ar
    40    20    15   ar
    41     1    14    1
@<TRIPOS>MOLECULE
*****
 37 41 0 0 0
SMALL
GASTEIGER

@<TRIPOS>ATOM
      1 N         140.5033  140.6291  166.3033 N.am    1  UNL1       -0.2681
      2 C         139.3813  139.9156  165.6091 C.2     1  UNL1        0.3079
      3 O         138.1107  139.6175  166.3485 O.2     1  UNL1       -0.2522
      4 N         139.5299  139.5000  164.1754 N.am    1  UNL1       -0.2594
      5 C         138.4079  138.7865  163.4812 C.3     1  UNL1        0.1016
      6 C         138.5566  138.3710  162.0476 C.3     1  UNL1        0.0672
      7 C         139.8272  138.6691  161.3083 C.ar    1  UNL1        0.0614
      8 N         139.9758  138.2535  159.8746 N.ar    1  UNL1       -0.2310
      9 C         141.2464  138.5516  159.1352 C.ar    1  UNL1        0.1648
     10 N         142.3684  139.2652  159.8295 N.ar    1  UNL1       -0.2267
     11 C         142.2198  139.6807  161.2631 C.ar    1  UNL1        0.0814
     12 C         140.9491  139.3826  162.0025 C.ar    1  UNL1        0.0291
     13 C         140.8005  139.7981  163.4360 C.3     1  UNL1        0.1243
     14 H         141.3372  140.8248  165.8180 H       1  UNL1        0.1564
     15 C         143.3417  140.3943  161.9573 C.ar    1  UNL1        0.0135
     16 C         144.2314  139.6481  162.9068 C.ar    1  UNL1        0.0012
     17 C         145.3535  140.3618  163.6011 C.ar    1  UNL1        0.0000
     18 C         145.5857  141.8215  163.3457 C.ar    1  UNL1       -0.0003
     19 C         144.6960  142.5676  162.3961 C.ar    1  UNL1       -0.0042
     20 C         143.5740  141.8541  161.7019 C.ar    1  UNL1       -0.0204
     21 C         142.6843  142.6002  160.7523 C.3     1  UNL1        0.0311
     22 C         140.5003  142.8741  169.5759 C.ar    1  UNL1       -0.0210
     23 C         140.0575  141.8758  170.6041 C.ar    1  UNL1       -0.0042
     24 C         139.7632  140.4619  170.1987 C.ar    1  UNL1        0.0010
     25 C         139.9118  140.0463  168.7651 C.ar    1  UNL1        0.0147
     26 C         140.3546  141.0447  167.7370 C.ar    1  UNL1        0.0513
     27 C         140.6489  142.4586  168.1424 C.ar    1  UNL1        0.0104
     28 C         139.6856  145.1771  170.4606 C.3     1  UNL1        0.0050
     29 C         140.7945  144.2880  169.9813 C.3     1  UNL1        0.0264
     30 C         141.3950  138.1361  157.7016 C.ar    1  UNL1        0.0741
     31 C         140.2356  138.2666  156.7588 C.ar    1  UNL1        0.1058
     32 N         140.3842  137.8511  155.3252 N.ar    1  UNL1       -0.2162
     33 C         141.6923  137.3051  154.8343 C.ar    1  UNL1        0.2331
     34 N         142.8517  137.1747  155.7770 N.ar    1  UNL1       -0.2162
     35 C         142.7031  137.5902  157.2107 C.ar    1  UNL1        0.1058
     36 C         141.8409  136.8897  153.4008 C.1     1  UNL1        0.1399
     37 N         141.9895  136.4741  151.9671 N.1     1  UNL1       -0.1876
@<TRIPOS>BOND
     1    28    29    1
     2    29    22    1
     3    22    23   ar
     4    23    24   ar
     5    24    25   ar
     6    25    26   ar
     7    26     1    1
     8     1     2   am
     9     2     3    2
    10     2     4   am
    11     4     5    1
    12     5     6    1
    13     6     7    1
    14     7     8   ar
    15     8     9   ar
    16     9    30    1
    17    30    31   ar
    18    31    32   ar
    19    32    33   ar
    20    33    36    1
    21    36    37    3
    22    33    34   ar
    23    34    35   ar
    24     9    10   ar
    25    10    11   ar
    26    11    15    1
    27    15    16   ar
    28    16    17   ar
    29    17    18   ar
    30    18    19   ar
    31    19    20   ar
    32    20    21    1
    33    11    12   ar
    34    12    13    1
    35    26    27   ar
    36    27    22   ar
    37    13     4    1
    38    12     7   ar
    39    35    30   ar
    40    20    15   ar
    41     1    14    1
@<TRIPOS>MOLECULE
*****
 37 41 0 0 0
SMALL
GASTEIGER

@<TRIPOS>ATOM
      1 N         141.2830  141.8731  166.3113 N.am    1  UNL1       -0.2681
      2 C         141.3004  140.4068  165.9959 C.2     1  UNL1        0.3079
      3 O         141.6268  139.4123  167.0704 O.2     1  UNL1       -0.2522
      4 N         140.9915  139.9348  164.6059 N.am    1  UNL1       -0.2594
      5 C         141.0089  138.4685  164.2905 C.3     1  UNL1        0.1016
      6 C         140.6999  137.9966  162.9006 C.3     1  UNL1        0.0672
      7 C         140.3736  138.9911  161.8261 C.ar    1  UNL1        0.0614
      8 N         140.0646  138.5192  160.4362 N.ar    1  UNL1       -0.2310
      9 C         139.7383  139.5137  159.3617 C.ar    1  UNL1        0.1648
     10 N         139.7209  140.9801  159.6772 N.ar    1  UNL1       -0.2267
     11 C         140.0298  141.4519  161.0671 C.ar    1  UNL1        0.0814
     12 C         140.3562  140.4574  162.1415 C.ar    1  UNL1        0.0291
     13 C         140.6651  140.9293  163.5314 C.3     1  UNL1        0.1243
     14 H         141.0688  142.5258  165.6061 H       1  UNL1        0.1564
     15 C         140.0124  142.9182  161.3825 C.ar    1  UNL1        0.0135
     16 C         141.1735  143.7835  160.9909 C.ar    1  UNL1        0.0012
     17 C         141.1560  145.2499  161.3064 C.ar    1  UNL1        0.0000
     18 C         139.9775  145.8510  162.0133 C.ar    1  UNL1       -0.0003
     19 C         138.8165  144.9857  162.4049 C.ar    1  UNL1       -0.0042
     20 C         138.8339  143.5194  162.0895 C.ar    1  UNL1       -0.0204
     21 C         137.6728  142.6542  162.4810 C.3     1  UNL1        0.0311
     22 C         143.2853  142.6587  169.6465 C.ar    1  UNL1       -0.0210
     23 C         142.2099  143.2888  170.4810 C.ar    1  UNL1       -0.0042
     24 C         140.8255  143.4469  169.9257 C.ar    1  UNL1        0.0010
     25 C         140.5165  142.9750  168.5358 C.ar    1  UNL1        0.0147
     26 C         141.5919  142.3450  167.7013 C.ar    1  UNL1        0.0513
     27 C         142.9763  142.1869  168.2566 C.ar    1  UNL1        0.0104
     28 C         145.5089  143.7122  170.4807 C.3     1  UNL1        0.0050
     29 C         144.6697  142.5006  170.2019 C.3     1  UNL1        0.0264
     30 C         139.4293  139.0418  157.9718 C.ar    1  UNL1        0.0741
     31 C         138.6115  139.9001  157.0527 C.ar    1  UNL1        0.1058
     32 N         138.3026  139.4283  155.6628 N.ar    1  UNL1       -0.2162
     33 C         138.8114  138.0981  155.1919 C.ar    1  UNL1        0.2331
     34 N         139.6292  137.2398  156.1109 N.ar    1  UNL1       -0.2162
     35 C         139.9382  137.7117  157.5008 C.ar    1  UNL1        0.1058
     36 C         138.5025  137.6263  153.8020 C.1     1  UNL1        0.1399
     37 N         138.1935  137.1544  152.4120 N.1     1  UNL1       -0.1876
@<TRIPOS>BOND
     1    28    29    1
     2    29    22    1
     3    22    23   ar
     4    23    24   ar
     5    24    25   ar
     6    25    26   ar
     7    26     1    1
     8     1     2   am
     9     2     3    2
    10     2     4   am
    11     4     5    1
    12     5     6    1
    13     6     7    1
    14     7     8   ar
    15     8     9   ar
    16     9    30    1
    17    30    31   ar
    18    31    32   ar
    19    32    33   ar
    20    33    36    1
    21    36    37    3
    22    33    34   ar
    23    34    35   ar
    24     9    10   ar
    25    10    11   ar
    26    11    15    1
    27    15    16   ar
    28    16    17   ar
    29    17    18   ar
    30    18    19   ar
    31    19    20   ar
    32    20    21    1
    33    11    12   ar
    34    12    13    1
    35    26    27   ar
    36    27    22   ar
    37    13     4    1
    38    12     7   ar
    39    35    30   ar
    40    20    15   ar
    41     1    14    1
@<TRIPOS>MOLECULE
*****
 37 41 0 0 0
SMALL
GASTEIGER

@<TRIPOS>ATOM
      1 N         142.5029  140.9884  159.4848 N.am    1  UNL1       -0.2681
      2 C         141.5458  139.8378  159.5839 C.2     1  UNL1        0.3079
      3 O         141.2748  138.9819  158.3822 O.2     1  UNL1       -0.2522
      4 N         140.8596  139.5430  160.8848 N.am    1  UNL1       -0.2594
      5 C         139.9025  138.3923  160.9840 C.3     1  UNL1        0.1016
      6 C         139.2163  138.0975  162.2849 C.3     1  UNL1        0.0672
      7 C         139.4873  138.9534  163.4866 C.ar    1  UNL1        0.0614
      8 N         138.8011  138.6586  164.7875 N.ar    1  UNL1       -0.2310
      9 C         139.0722  139.5144  165.9892 C.ar    1  UNL1        0.1648
     10 N         140.0293  140.6651  165.8899 N.ar    1  UNL1       -0.2267
     11 C         140.7155  140.9599  164.5891 C.ar    1  UNL1        0.0814
     12 C         140.4445  140.1040  163.3874 C.ar    1  UNL1        0.0291
     13 C         141.1306  140.3988  162.0865 C.3     1  UNL1        0.1243
     14 H         142.6808  141.5501  160.2735 H       1  UNL1        0.1564
     15 C         141.6726  142.1105  164.4899 C.ar    1  UNL1        0.0135
     16 C         141.1715  143.4724  164.1101 C.ar    1  UNL1        0.0012
     17 C         142.1287  144.6231  164.0109 C.ar    1  UNL1        0.0000
     18 C         143.5870  144.4118  164.2916 C.ar    1  UNL1       -0.0003
     19 C         144.0881  143.0500  164.6714 C.ar    1  UNL1       -0.0042
     20 C         143.1310  141.8994  164.7706 C.ar    1  UNL1       -0.0204
     21 C         143.6321  140.5375  165.1504 C.3     1  UNL1        0.0311
     22 C         143.2729  142.5610  155.9232 C.ar    1  UNL1       -0.0210
     23 C         144.5614  141.8729  155.5821 C.ar    1  UNL1       -0.0042
     24 C         145.1637  140.8900  156.5419 C.ar    1  UNL1        0.0010
     25 C         144.4776  140.5952  157.8427 C.ar    1  UNL1        0.0147
     26 C         143.1891  141.2832  158.1838 C.ar    1  UNL1        0.0513
     27 C         142.5868  142.2661  157.2241 C.ar    1  UNL1        0.0104
     28 C         141.9037  144.7243  155.4815 C.3     1  UNL1        0.0050
     29 C         142.6706  143.5439  154.9635 C.3     1  UNL1        0.0264
     30 C         138.3860  139.2197  167.2900 C.ar    1  UNL1        0.0741
     31 C         137.2625  138.2268  167.3373 C.ar    1  UNL1        0.1058
     32 N         136.5764  137.9321  168.6382 N.ar    1  UNL1       -0.2162
     33 C         137.0137  138.6301  169.8918 C.ar    1  UNL1        0.2331
     34 N         138.1371  139.6229  169.8445 N.ar    1  UNL1       -0.2162
     35 C         138.8233  139.9177  168.5436 C.ar    1  UNL1        0.1058
     36 C         136.3276  138.3353  171.1926 C.1     1  UNL1        0.1399
     37 N         135.6414  138.0405  172.4936 N.1     1  UNL1       -0.1876
@<TRIPOS>BOND
     1    28    29    1
     2    29    22    1
     3    22    23   ar
     4    23    24   ar
     5    24    25   ar
     6    25    26   ar
     7    26     1    1
     8     1     2   am
     9     2     3    2
    10     2     4   am
    11     4     5    1
    12     5     6    1
    13     6     7    1
    14     7     8   ar
    15     8     9   ar
    16     9    30    1
    17    30    31   ar
    18    31    32   ar
    19    32    33   ar
    20    33    36    1
    21    36    37    3
    22    33    34   ar
    23    34    35   ar
    24     9    10   ar
    25    10    11   ar
    26    11    15    1
    27    15    16   ar
    28    16    17   ar
    29    17    18   ar
    30    18    19   ar
    31    19    20   ar
    32    20    21    1
    33    11    12   ar
    34    12    13    1
    35    26    27   ar
    36    27    22   ar
    37    13     4    1
    38    12     7   ar
    39    35    30   ar
    40    20    15   ar
    41     1    14    1
@<TRIPOS>MOLECULE
*****
 37 41 0 0 0
SMALL
GASTEIGER

@<TRIPOS>ATOM
      1 N         142.0349  140.9912  159.6016 N.am    1  UNL1       -0.2681
      2 C         141.2367  139.7315  159.7633 C.2     1  UNL1        0.3079
      3 O         141.0897  138.7836  158.6101 O.2     1  UNL1       -0.2522
      4 N         140.5855  139.4198  161.0782 N.am    1  UNL1       -0.2594
      5 C         139.7874  138.1601  161.2398 C.3     1  UNL1        0.1016
      6 C         139.1362  137.8485  162.5546 C.3     1  UNL1        0.0672
      7 C         139.2832  138.7964  163.7078 C.ar    1  UNL1        0.0614
      8 N         138.6320  138.4847  165.0227 N.ar    1  UNL1       -0.2310
      9 C         138.7790  139.4327  166.1758 C.ar    1  UNL1        0.1648
     10 N         139.5772  140.6924  166.0141 N.ar    1  UNL1       -0.2267
     11 C         140.2283  141.0041  164.6993 C.ar    1  UNL1        0.0814
     12 C         140.0813  140.0561  163.5461 C.ar    1  UNL1        0.0291
     13 C         140.7325  140.3678  162.2313 C.3     1  UNL1        0.1243
     14 H         142.1314  141.6133  160.3585 H       1  UNL1        0.1564
     15 C         141.0265  142.2637  164.5376 C.ar    1  UNL1        0.0135
     16 C         142.5061  142.2509  164.7839 C.ar    1  UNL1        0.0012
     17 C         143.3042  143.5107  164.6222 C.ar    1  UNL1        0.0000
     18 C         142.6228  144.7831  164.2142 C.ar    1  UNL1       -0.0003
     19 C         141.1432  144.7959  163.9679 C.ar    1  UNL1       -0.0042
     20 C         140.3451  143.5362  164.1296 C.ar    1  UNL1       -0.0204
     21 C         138.8655  143.5490  163.8833 C.3     1  UNL1        0.0311
     22 C         144.8248  141.7921  156.8951 C.ar    1  UNL1       -0.0210
     23 C         143.9886  141.9263  155.6572 C.ar    1  UNL1       -0.0042
     24 C         142.5011  141.7488  155.7340 C.ar    1  UNL1        0.0010
     25 C         141.8499  141.4371  157.0488 C.ar    1  UNL1        0.0147
     26 C         142.6861  141.3029  158.2867 C.ar    1  UNL1        0.0513
     27 C         144.1736  141.4804  158.2099 C.ar    1  UNL1        0.0104
     28 C         146.9736  142.1915  155.4904 C.3     1  UNL1        0.0050
     29 C         146.3123  141.9696  156.8183 C.3     1  UNL1        0.0264
     30 C         138.1278  139.1210  167.4906 C.ar    1  UNL1        0.0741
     31 C         138.5561  139.8481  168.7308 C.ar    1  UNL1        0.1058
     32 N         137.9050  139.5365  170.0456 N.ar    1  UNL1       -0.2162
     33 C         136.8255  138.4977  170.1204 C.ar    1  UNL1        0.2331
     34 N         136.3971  137.7706  168.8803 N.ar    1  UNL1       -0.2162
     35 C         137.0483  138.0822  167.5654 C.ar    1  UNL1        0.1058
     36 C         136.1743  138.1860  171.4352 C.1     1  UNL1        0.1399
     37 N         135.5231  137.8743  172.7501 N.1     1  UNL1       -0.1876
@<TRIPOS>BOND
     1    28    29    1
     2    29    22    1
     3    22    23   ar
     4    23    24   ar
     5    24    25   ar
     6    25    26   ar
     7    26     1    1
     8     1     2   am
     9     2     3    2
    10     2     4   am
    11     4     5    1
    12     5     6    1
    13     6     7    1
    14     7     8   ar
    15     8     9   ar
    16     9    30    1
    17    30    31   ar
    18    31    32   ar
    19    32    33   ar
    20    33    36    1
    21    36    37    3
    22    33    34   ar
    23    34    35   ar
    24     9    10   ar
    25    10    11   ar
    26    11    15    1
    27    15    16   ar
    28    16    17   ar
    29    17    18   ar
    30    18    19   ar
    31    19    20   ar
    32    20    21    1
    33    11    12   ar
    34    12    13    1
    35    26    27   ar
    36    27    22   ar
    37    13     4    1
    38    12     7   ar
    39    35    30   ar
    40    20    15   ar
    41     1    14    1
@<TRIPOS>MOLECULE
*****
 37 41 0 0 0
SMALL
GASTEIGER

@<TRIPOS>ATOM
      1 N         141.0678  143.4073  159.6236 N.am    1  UNL1       -0.2681
      2 C         142.2163  142.4427  159.6063 C.2     1  UNL1        0.3079
      3 O         143.0109  142.2449  158.3495 O.2     1  UNL1       -0.2522
      4 N         142.5704  141.6758  160.8459 N.am    1  UNL1       -0.2594
      5 C         143.7189  140.7111  160.8286 C.3     1  UNL1        0.1016
      6 C         144.0728  139.9442  162.0682 C.3     1  UNL1        0.0672
      7 C         143.2783  140.1420  163.3250 C.ar    1  UNL1        0.0614
      8 N         143.6323  139.3751  164.5647 N.ar    1  UNL1       -0.2310
      9 C         142.8378  139.5729  165.8215 C.ar    1  UNL1        0.1648
     10 N         141.6893  140.5376  165.8387 N.ar    1  UNL1       -0.2267
     11 C         141.3353  141.3045  164.5991 C.ar    1  UNL1        0.0814
     12 C         142.1298  141.1067  163.3423 C.ar    1  UNL1        0.0291
     13 C         141.7758  141.8735  162.1027 C.3     1  UNL1        0.1243
     14 H         140.5464  143.5371  160.4485 H       1  UNL1        0.1564
     15 C         140.1868  142.2691  164.6164 C.ar    1  UNL1        0.0135
     16 C         140.4278  143.7167  164.9269 C.ar    1  UNL1        0.0012
     17 C         139.2792  144.6814  164.9441 C.ar    1  UNL1        0.0000
     18 C         137.8897  144.1985  164.6509 C.ar    1  UNL1       -0.0003
     19 C         137.6487  142.7509  164.3404 C.ar    1  UNL1       -0.0042
     20 C         138.7972  141.7862  164.3231 C.ar    1  UNL1       -0.0204
     21 C         138.5562  140.3386  164.0126 C.3     1  UNL1        0.0311
     22 C         139.3426  144.3927  156.1881 C.ar    1  UNL1       -0.0210
     23 C         140.0057  145.7080  155.9048 C.ar    1  UNL1       -0.0042
     24 C         141.0229  146.2564  156.8612 C.ar    1  UNL1        0.0010
     25 C         141.3770  145.4895  158.1007 C.ar    1  UNL1        0.0147
     26 C         140.7138  144.1743  158.3839 C.ar    1  UNL1        0.0513
     27 C         139.6966  143.6259  157.4276 C.ar    1  UNL1        0.0104
     28 C         137.3252  144.7618  154.5930 C.3     1  UNL1        0.0050
     29 C         138.3254  143.8443  155.2317 C.3     1  UNL1        0.0264
     30 C         143.1918  138.8060  167.0610 C.ar    1  UNL1        0.0741
     31 C         144.1210  137.6315  166.9767 C.ar    1  UNL1        0.1058
     32 N         144.4750  136.8646  168.2162 N.ar    1  UNL1       -0.2162
     33 C         143.8998  137.2722  169.5402 C.ar    1  UNL1        0.2331
     34 N         142.9706  138.4467  169.6247 N.ar    1  UNL1       -0.2162
     35 C         142.6166  139.2136  168.3850 C.ar    1  UNL1        0.1058
     36 C         144.2538  136.5054  170.7798 C.1     1  UNL1        0.1399
     37 N         144.6077  135.7384  172.0194 N.1     1  UNL1       -0.1876
@<TRIPOS>BOND
     1    28    29    1
     2    29    22    1
     3    22    23   ar
     4    23    24   ar
     5    24    25   ar
     6    25    26   ar
     7    26     1    1
     8     1     2   am
     9     2     3    2
    10     2     4   am
    11     4     5    1
    12     5     6    1
    13     6     7    1
    14     7     8   ar
    15     8     9   ar
    16     9    30    1
    17    30    31   ar
    18    31    32   ar
    19    32    33   ar
    20    33    36    1
    21    36    37    3
    22    33    34   ar
    23    34    35   ar
    24     9    10   ar
    25    10    11   ar
    26    11    15    1
    27    15    16   ar
    28    16    17   ar
    29    17    18   ar
    30    18    19   ar
    31    19    20   ar
    32    20    21    1
    33    11    12   ar
    34    12    13    1
    35    26    27   ar
    36    27    22   ar
    37    13     4    1
    38    12     7   ar
    39    35    30   ar
    40    20    15   ar
    41     1    14    1
