@<TRIPOS>MOLECULE
*****
 36 40 0 0 0
SMALL
GASTEIGER

@<TRIPOS>ATOM
      1 N         142.8686  141.5625  161.1952 N.3     1  UNL1       -0.2695
      2 C         143.3934  141.5730  162.6003 C.3     1  UNL1        0.0939
      3 C         143.0768  140.4372  163.5277 C.3     1  UNL1        0.1107
      4 N         142.2355  139.2910  163.0498 N.am    1  UNL1       -0.2764
      5 C         141.9189  138.1553  163.9771 C.2     1  UNL1        0.2301
      6 O         141.0776  137.0090  163.4992 O.2     1  UNL1       -0.2745
      7 C         141.7107  139.2805  161.6446 C.3     1  UNL1        0.1107
      8 C         142.0272  140.4162  160.7173 C.3     1  UNL1        0.0939
      9 C         143.1852  142.6982  160.2679 C.3     1  UNL1        0.0769
     10 C         142.3922  143.9693  160.3408 C.3     1  UNL1        0.0437
     11 O         138.4756  145.4450  166.0954 O.2     1  UNL1       -0.2449
     12 C         138.4547  144.7477  164.7675 C.2     1  UNL1        0.3413
     13 O         137.2944  143.9971  164.1839 O.3     1  UNL1       -0.4404
     14 C         137.7131  143.4641  162.8458 C.3     1  UNL1        0.2356
     15 C         139.1320  143.8852  162.6023 C.ar    1  UNL1        0.0272
     16 C         140.0659  143.6488  161.4526 C.ar    1  UNL1       -0.0047
     17 C         141.4582  144.2057  161.4906 C.ar    1  UNL1       -0.0210
     18 C         141.9165  144.9990  162.6783 C.ar    1  UNL1       -0.0040
     19 C         140.9826  145.2354  163.8280 C.ar    1  UNL1        0.0059
     20 C         139.5904  144.6785  163.7900 C.ar    1  UNL1        0.0751
     21 C         142.4437  138.1657  165.3822 C.3     1  UNL1        0.1115
     22 C         141.9168  139.1619  166.3722 C.ar    1  UNL1       -0.0130
     23 C         140.4419  139.4193  166.4646 C.ar    1  UNL1       -0.0023
     24 C         139.9149  140.4154  167.4545 C.ar    1  UNL1        0.0189
     25 C         140.8628  141.1541  168.3521 C.ar    1  UNL1        0.0901
     26 C         142.3377  140.8968  168.2598 C.ar    1  UNL1        0.0889
     27 C         142.8647  139.9006  167.2698 C.ar    1  UNL1        0.0016
     28 N         140.3359  142.1503  169.3421 N.ar    1  UNL1       -0.1886
     29 C         140.4908  143.6401  169.2614 C.ar    1  UNL1        0.2258
     30 N         139.8121  144.2421  170.4560 N.ar    1  UNL1       -0.1045
     31 N         139.2378  143.1243  171.2751 N.ar    1  UNL1       -0.0222
     32 N         139.5615  141.8315  170.5866 N.ar    1  UNL1       -0.0385
     33 C         143.2856  141.6355  169.1575 C.3     1  UNL1        0.4200
     34 F         144.2334  142.3743  170.0551 F       1  UNL1       -0.1658
     35 F         143.0330  140.6359  170.2468 F       1  UNL1       -0.1658
     36 F         143.5382  142.6352  168.0681 F       1  UNL1       -0.1658
@<TRIPOS>BOND
     1    11    12    2
     2    12    13    1
     3    13    14    1
     4    14    15    1
     5    15    16   ar
     6    16    17   ar
     7    17    10    1
     8    10     9    1
     9     9     1    1
    10     1     2    1
    11     2     3    1
    12     3     4    1
    13     4     5   am
    14     5     6    2
    15     5    21    1
    16    21    22    1
    17    22    23   ar
    18    23    24   ar
    19    24    25   ar
    20    25    28    1
    21    28    29   ar
    22    29    30   ar
    23    30    31   ar
    24    31    32   ar
    25    25    26   ar
    26    26    33    1
    27    33    34    1
    28    33    35    1
    29    33    36    1
    30    26    27   ar
    31     4     7    1
    32     7     8    1
    33    17    18   ar
    34    18    19   ar
    35    19    20   ar
    36    20    12    1
    37    20    15   ar
    38     8     1    1
    39    27    22   ar
    40    32    28   ar
@<TRIPOS>MOLECULE
*****
 36 40 0 0 0
SMALL
GASTEIGER

@<TRIPOS>ATOM
      1 N         139.7415  142.1631  160.8767 N.3     1  UNL1       -0.2695
      2 C         138.8119  142.0036  162.0430 C.3     1  UNL1        0.0939
      3 C         138.7723  140.7084  162.7989 C.3     1  UNL1        0.1107
      4 N         139.6623  139.5730  162.3883 N.am    1  UNL1       -0.2764
      5 C         139.6226  138.2780  163.1442 C.2     1  UNL1        0.2301
      6 O         140.5127  137.1424  162.7337 O.2     1  UNL1       -0.2745
      7 C         140.5919  139.7326  161.2220 C.3     1  UNL1        0.1107
      8 C         140.6315  141.0276  160.4662 C.3     1  UNL1        0.0939
      9 C         139.7811  143.4582  160.1209 C.3     1  UNL1        0.0769
     10 C         140.8460  144.4705  160.4229 C.3     1  UNL1        0.0437
     11 O         144.8897  143.9007  166.2500 O.2     1  UNL1       -0.2449
     12 C         144.7270  143.4119  164.8412 C.2     1  UNL1        0.3413
     13 O         145.6144  142.4249  164.1424 O.3     1  UNL1       -0.4404
     14 C         145.0840  142.2273  162.7533 C.3     1  UNL1        0.2356
     15 C         143.8689  143.0921  162.5936 C.ar    1  UNL1        0.0272
     16 C         142.9348  143.3075  161.4399 C.ar    1  UNL1       -0.0047
     17 C         141.7801  144.2551  161.5766 C.ar    1  UNL1       -0.0210
     18 C         141.5594  144.9872  162.8671 C.ar    1  UNL1       -0.0040
     19 C         142.4935  144.7718  164.0208 C.ar    1  UNL1        0.0059
     20 C         143.6482  143.8243  163.8841 C.ar    1  UNL1        0.0751
     21 C         138.6930  138.1184  164.3105 C.3     1  UNL1        0.1115
     22 C         139.0114  138.7788  165.6192 C.ar    1  UNL1       -0.0130
     23 C         138.0179  138.7359  166.7422 C.ar    1  UNL1       -0.0023
     24 C         138.3362  139.3963  168.0508 C.ar    1  UNL1        0.0189
     25 C         139.6480  140.0996  168.2364 C.ar    1  UNL1        0.0901
     26 C         140.6415  140.1425  167.1134 C.ar    1  UNL1        0.0889
     27 C         140.3232  139.4822  165.8048 C.ar    1  UNL1        0.0016
     28 N         139.9663  140.7600  169.5451 N.ar    1  UNL1       -0.1886
     29 C         140.5380  140.0858  170.7569 C.ar    1  UNL1        0.2258
     30 N         140.6939  141.1197  171.8324 N.ar    1  UNL1       -0.1045
     31 N         140.2186  142.4330  171.2853 N.ar    1  UNL1       -0.0222
     32 N         139.7689  142.2107  169.8716 N.ar    1  UNL1       -0.0385
     33 C         141.9533  140.8459  167.2991 C.3     1  UNL1        0.4200
     34 F         143.2651  141.5493  167.4847 F       1  UNL1       -0.1658
     35 F         141.3632  142.0986  166.7225 F       1  UNL1       -0.1658
     36 F         142.5434  139.5932  167.8757 F       1  UNL1       -0.1658
@<TRIPOS>BOND
     1    11    12    2
     2    12    13    1
     3    13    14    1
     4    14    15    1
     5    15    16   ar
     6    16    17   ar
     7    17    10    1
     8    10     9    1
     9     9     1    1
    10     1     2    1
    11     2     3    1
    12     3     4    1
    13     4     5   am
    14     5     6    2
    15     5    21    1
    16    21    22    1
    17    22    23   ar
    18    23    24   ar
    19    24    25   ar
    20    25    28    1
    21    28    29   ar
    22    29    30   ar
    23    30    31   ar
    24    31    32   ar
    25    25    26   ar
    26    26    33    1
    27    33    34    1
    28    33    35    1
    29    33    36    1
    30    26    27   ar
    31     4     7    1
    32     7     8    1
    33    17    18   ar
    34    18    19   ar
    35    19    20   ar
    36    20    12    1
    37    20    15   ar
    38     8     1    1
    39    27    22   ar
    40    32    28   ar
@<TRIPOS>MOLECULE
*****
 36 40 0 0 0
SMALL
GASTEIGER

@<TRIPOS>ATOM
      1 N         140.4995  138.8985  160.3173 N.3     1  UNL1       -0.2695
      2 C         139.8874  138.4295  161.6039 C.3     1  UNL1        0.0939
      3 C         140.7219  138.3554  162.8482 C.3     1  UNL1        0.1107
      4 N         142.1683  138.7503  162.8059 N.am    1  UNL1       -0.2764
      5 C         143.0027  138.6762  164.0502 C.2     1  UNL1        0.2301
      6 O         144.4492  139.0710  164.0078 O.2     1  UNL1       -0.2745
      7 C         142.7804  139.2193  161.5192 C.3     1  UNL1        0.1107
      8 C         141.9460  139.2934  160.2750 C.3     1  UNL1        0.0939
      9 C         139.6651  138.9726  159.0730 C.3     1  UNL1        0.0769
     10 C         138.7631  140.1491  158.8438 C.3     1  UNL1        0.0437
     11 O         140.1306  146.3095  162.1318 O.2     1  UNL1       -0.2449
     12 C         139.3156  145.0529  162.2131 C.2     1  UNL1        0.3413
     13 O         138.3358  144.7059  163.2946 O.3     1  UNL1       -0.4404
     14 C         137.7520  143.3611  162.9770 C.3     1  UNL1        0.2356
     15 C         138.3710  142.8770  161.6994 C.ar    1  UNL1        0.0272
     16 C         138.1796  141.6192  160.9049 C.ar    1  UNL1       -0.0047
     17 C         138.9546  141.4069  159.6383 C.ar    1  UNL1       -0.0210
     18 C         139.9209  142.4525  159.1662 C.ar    1  UNL1       -0.0040
     19 C         140.1123  143.7103  159.9606 C.ar    1  UNL1        0.0059
     20 C         139.3374  143.9225  161.2272 C.ar    1  UNL1        0.0751
     21 C         142.3906  138.2072  165.3368 C.3     1  UNL1        0.1115
     22 C         141.8766  139.2062  166.3308 C.ar    1  UNL1       -0.0130
     23 C         140.4071  139.4965  166.4109 C.ar    1  UNL1       -0.0023
     24 C         139.8931  140.4954  167.4048 C.ar    1  UNL1        0.0189
     25 C         140.8485  141.2040  168.3186 C.ar    1  UNL1        0.0901
     26 C         142.3180  140.9137  168.2384 C.ar    1  UNL1        0.0889
     27 C         142.8320  139.9148  167.2445 C.ar    1  UNL1        0.0016
     28 N         140.3345  142.2030  169.3125 N.ar    1  UNL1       -0.1886
     29 C         140.5038  143.6913  169.2348 C.ar    1  UNL1        0.2258
     30 N         139.8349  144.2971  170.4330 N.ar    1  UNL1       -0.1045
     31 N         139.2521  143.1831  171.2512 N.ar    1  UNL1       -0.0222
     32 N         139.5609  141.8889  170.5587 N.ar    1  UNL1       -0.0385
     33 C         143.2734  141.6224  169.1523 C.3     1  UNL1        0.4200
     34 F         144.2288  142.3310  170.0660 F       1  UNL1       -0.1658
     35 F         143.5967  142.5967  168.0586 F       1  UNL1       -0.1658
     36 F         142.9501  140.6480  170.2459 F       1  UNL1       -0.1658
@<TRIPOS>BOND
     1    11    12    2
     2    12    13    1
     3    13    14    1
     4    14    15    1
     5    15    16   ar
     6    16    17   ar
     7    17    10    1
     8    10     9    1
     9     9     1    1
    10     1     2    1
    11     2     3    1
    12     3     4    1
    13     4     5   am
    14     5     6    2
    15     5    21    1
    16    21    22    1
    17    22    23   ar
    18    23    24   ar
    19    24    25   ar
    20    25    28    1
    21    28    29   ar
    22    29    30   ar
    23    30    31   ar
    24    31    32   ar
    25    25    26   ar
    26    26    33    1
    27    33    34    1
    28    33    35    1
    29    33    36    1
    30    26    27   ar
    31     4     7    1
    32     7     8    1
    33    17    18   ar
    34    18    19   ar
    35    19    20   ar
    36    20    12    1
    37    20    15   ar
    38     8     1    1
    39    27    22   ar
    40    32    28   ar
@<TRIPOS>MOLECULE
*****
 36 40 0 0 0
SMALL
GASTEIGER

@<TRIPOS>ATOM
      1 N         142.2132  142.0819  159.7604 N.3     1  UNL1       -0.2695
      2 C         141.8635  140.8612  160.5588 C.3     1  UNL1        0.0939
      3 C         142.7468  140.4270  161.6908 C.3     1  UNL1        0.1107
      4 N         143.9797  141.2136  162.0244 N.am    1  UNL1       -0.2764
      5 C         144.8629  140.7795  163.1564 C.2     1  UNL1        0.2301
      6 O         146.0958  141.5661  163.4900 O.2     1  UNL1       -0.2745
      7 C         144.3293  142.4344  161.2260 C.3     1  UNL1        0.1107
      8 C         143.4461  142.8685  160.0940 C.3     1  UNL1        0.0939
      9 C         141.3300  142.5161  158.6284 C.3     1  UNL1        0.0769
     10 C         140.1601  143.4169  158.8929 C.3     1  UNL1        0.0437
     11 O         138.5133  145.3139  165.5503 O.2     1  UNL1       -0.2449
     12 C         138.2873  144.2634  164.5037 C.2     1  UNL1        0.3413
     13 O         137.4338  143.0390  164.6532 O.3     1  UNL1       -0.4404
     14 C         137.4943  142.2718  163.3657 C.3     1  UNL1        0.2356
     15 C         138.3852  143.0220  162.4204 C.ar    1  UNL1        0.0272
     16 C         138.8134  142.7433  161.0101 C.ar    1  UNL1       -0.0047
     17 C         139.7318  143.6955  160.3032 C.ar    1  UNL1       -0.0210
     18 C         140.2220  144.9264  161.0065 C.ar    1  UNL1       -0.0040
     19 C         139.7937  145.2051  162.4168 C.ar    1  UNL1        0.0059
     20 C         138.8753  144.2529  163.1237 C.ar    1  UNL1        0.0751
     21 C         144.5132  139.5587  163.9548 C.3     1  UNL1        0.1115
     22 C         143.6759  139.6867  165.1928 C.ar    1  UNL1       -0.0130
     23 C         143.6984  138.6021  166.2288 C.ar    1  UNL1       -0.0023
     24 C         142.8611  138.7300  167.4668 C.ar    1  UNL1        0.0189
     25 C         142.0014  139.9425  167.6688 C.ar    1  UNL1        0.0901
     26 C         141.9790  141.0270  166.6328 C.ar    1  UNL1        0.0889
     27 C         142.8162  140.8991  165.3948 C.ar    1  UNL1        0.0016
     28 N         141.1641  140.0705  168.9068 N.ar    1  UNL1       -0.1886
     29 C         141.6394  140.5472  170.2472 C.ar    1  UNL1        0.2258
     30 N         140.4735  140.5155  171.1905 N.ar    1  UNL1       -0.1045
     31 N         139.2777  140.0192  170.4331 N.ar    1  UNL1       -0.0222
     32 N         139.7045  139.7441  169.0216 N.ar    1  UNL1       -0.0385
     33 C         141.1192  142.2395  166.8348 C.3     1  UNL1        0.4200
     34 F         140.2594  143.4519  167.0367 F       1  UNL1       -0.1658
     35 F         140.0870  141.6612  165.9127 F       1  UNL1       -0.1658
     36 F         142.1513  142.8178  167.7568 F       1  UNL1       -0.1658
@<TRIPOS>BOND
     1    11    12    2
     2    12    13    1
     3    13    14    1
     4    14    15    1
     5    15    16   ar
     6    16    17   ar
     7    17    10    1
     8    10     9    1
     9     9     1    1
    10     1     2    1
    11     2     3    1
    12     3     4    1
    13     4     5   am
    14     5     6    2
    15     5    21    1
    16    21    22    1
    17    22    23   ar
    18    23    24   ar
    19    24    25   ar
    20    25    28    1
    21    28    29   ar
    22    29    30   ar
    23    30    31   ar
    24    31    32   ar
    25    25    26   ar
    26    26    33    1
    27    33    34    1
    28    33    35    1
    29    33    36    1
    30    26    27   ar
    31     4     7    1
    32     7     8    1
    33    17    18   ar
    34    18    19   ar
    35    19    20   ar
    36    20    12    1
    37    20    15   ar
    38     8     1    1
    39    27    22   ar
    40    32    28   ar
@<TRIPOS>MOLECULE
*****
 36 40 0 0 0
SMALL
GASTEIGER

@<TRIPOS>ATOM
      1 N         143.5872  140.3965  160.6781 N.3     1  UNL1       -0.2695
      2 C         144.2015  140.5651  162.0362 C.3     1  UNL1        0.0939
      3 C         143.6837  139.7694  163.1976 C.3     1  UNL1        0.1107
      4 N         142.5517  138.8051  163.0010 N.am    1  UNL1       -0.2764
      5 C         142.0340  138.0094  164.1623 C.2     1  UNL1        0.2301
      6 O         140.9020  137.0451  163.9657 O.2     1  UNL1       -0.2745
      7 C         141.9374  138.6365  161.6429 C.3     1  UNL1        0.1107
      8 C         142.4552  139.4321  160.4815 C.3     1  UNL1        0.0939
      9 C         144.1049  141.1921  159.5168 C.3     1  UNL1        0.0769
     10 C         143.4552  142.4934  159.1499 C.3     1  UNL1        0.0437
     11 O         137.6514  144.7483  162.5943 O.2     1  UNL1       -0.2449
     12 C         139.1504  144.7227  162.6433 C.2     1  UNL1        0.3413
     13 O         140.0079  145.3273  163.7153 O.3     1  UNL1       -0.4404
     14 C         141.4425  145.0662  163.3634 C.3     1  UNL1        0.2356
     15 C         141.4716  144.3003  162.0740 C.ar    1  UNL1        0.0272
     16 C         142.6050  143.7688  161.2477 C.ar    1  UNL1       -0.0047
     17 C         142.3217  143.0249  159.9763 C.ar    1  UNL1       -0.0210
     18 C         140.9051  142.8126  159.5313 C.ar    1  UNL1       -0.0040
     19 C         139.7717  143.3442  160.3576 C.ar    1  UNL1        0.0059
     20 C         140.0549  144.0880  161.6290 C.ar    1  UNL1        0.0751
     21 C         142.6483  138.1781  165.5204 C.3     1  UNL1        0.1115
     22 C         142.0816  139.1817  166.4805 C.ar    1  UNL1       -0.0130
     23 C         140.6074  139.4584  166.4928 C.ar    1  UNL1       -0.0023
     24 C         140.0406  140.4619  167.4529 C.ar    1  UNL1        0.0189
     25 C         140.9481  141.1887  168.4006 C.ar    1  UNL1        0.0901
     26 C         142.4223  140.9119  168.3883 C.ar    1  UNL1        0.0889
     27 C         142.9890  139.9084  167.4282 C.ar    1  UNL1        0.0016
     28 N         140.3814  142.1922  169.3607 N.ar    1  UNL1       -0.1886
     29 C         140.5293  143.6821  169.2683 C.ar    1  UNL1        0.2258
     30 N         139.8066  144.2927  170.4322 N.ar    1  UNL1       -0.1045
     31 N         139.2121  143.1802  171.2441 N.ar    1  UNL1       -0.0222
     32 N         139.5673  141.8821  170.5818 N.ar    1  UNL1       -0.0385
     33 C         143.3298  141.6388  169.3360 C.3     1  UNL1        0.4200
     34 F         144.2373  142.3656  170.2837 F       1  UNL1       -0.1658
     35 F         143.5597  142.7004  168.3017 F       1  UNL1       -0.1658
     36 F         143.0999  140.5772  170.3704 F       1  UNL1       -0.1658
@<TRIPOS>BOND
     1    11    12    2
     2    12    13    1
     3    13    14    1
     4    14    15    1
     5    15    16   ar
     6    16    17   ar
     7    17    10    1
     8    10     9    1
     9     9     1    1
    10     1     2    1
    11     2     3    1
    12     3     4    1
    13     4     5   am
    14     5     6    2
    15     5    21    1
    16    21    22    1
    17    22    23   ar
    18    23    24   ar
    19    24    25   ar
    20    25    28    1
    21    28    29   ar
    22    29    30   ar
    23    30    31   ar
    24    31    32   ar
    25    25    26   ar
    26    26    33    1
    27    33    34    1
    28    33    35    1
    29    33    36    1
    30    26    27   ar
    31     4     7    1
    32     7     8    1
    33    17    18   ar
    34    18    19   ar
    35    19    20   ar
    36    20    12    1
    37    20    15   ar
    38     8     1    1
    39    27    22   ar
    40    32    28   ar
@<TRIPOS>MOLECULE
*****
 36 40 0 0 0
SMALL
GASTEIGER

@<TRIPOS>ATOM
      1 N         138.6219  140.3045  159.8871 N.3     1  UNL1       -0.2695
      2 C         137.7390  140.2788  161.0994 C.3     1  UNL1        0.0939
      3 C         138.0956  139.4093  162.2687 C.3     1  UNL1        0.1107
      4 N         139.3351  138.5657  162.2255 N.am    1  UNL1       -0.2764
      5 C         139.6917  137.6963  163.3946 C.2     1  UNL1        0.2301
      6 O         140.9312  136.8526  163.3515 O.2     1  UNL1       -0.2745
      7 C         140.2180  138.5914  161.0131 C.3     1  UNL1        0.1107
      8 C         139.8615  139.4608  159.8439 C.3     1  UNL1        0.0939
      9 C         138.2654  141.1739  158.7179 C.3     1  UNL1        0.0769
     10 C         138.6616  142.6206  158.7106 C.3     1  UNL1        0.0437
     11 O         144.2581  144.7670  162.5453 O.2     1  UNL1       -0.2449
     12 C         142.7660  144.6146  162.5685 C.2     1  UNL1        0.3413
     13 O         141.8606  144.9743  163.7090 O.3     1  UNL1       -0.4404
     14 C         140.4524  144.6577  163.3005 C.3     1  UNL1        0.2356
     15 C         140.4876  144.1022  161.9076 C.ar    1  UNL1        0.0272
     16 C         139.4023  143.6172  160.9928 C.ar    1  UNL1       -0.0047
     17 C         139.7469  143.1056  159.6255 C.ar    1  UNL1       -0.0210
     18 C         141.1768  143.0789  159.1731 C.ar    1  UNL1       -0.0040
     19 C         142.2621  143.5639  160.0879 C.ar    1  UNL1        0.0059
     20 C         141.9175  144.0755  161.4551 C.ar    1  UNL1        0.0751
     21 C         138.8088  137.6706  164.6070 C.3     1  UNL1        0.1115
     22 C         139.1242  138.5465  165.7832 C.ar    1  UNL1       -0.0130
     23 C         138.1376  138.6793  166.9053 C.ar    1  UNL1       -0.0023
     24 C         138.4530  139.5551  168.0815 C.ar    1  UNL1        0.0189
     25 C         139.7549  140.2981  168.1356 C.ar    1  UNL1        0.0901
     26 C         140.7414  140.1653  167.0135 C.ar    1  UNL1        0.0889
     27 C         140.4261  139.2895  165.8373 C.ar    1  UNL1        0.0016
     28 N         140.0703  141.1740  169.3118 N.ar    1  UNL1       -0.1886
     29 C         140.4360  140.7036  170.6884 C.ar    1  UNL1        0.2258
     30 N         140.6671  141.9129  171.5453 N.ar    1  UNL1       -0.1045
     31 N         140.4442  143.1307  170.6982 N.ar    1  UNL1       -0.0222
     32 N         140.0753  142.6739  169.3179 N.ar    1  UNL1       -0.0385
     33 C         142.0434  140.9083  167.0677 C.3     1  UNL1        0.4200
     34 F         143.3453  141.6513  167.1218 F       1  UNL1       -0.1658
     35 F         142.6846  139.7352  167.7478 F       1  UNL1       -0.1658
     36 F         141.4022  142.0814  166.3875 F       1  UNL1       -0.1658
@<TRIPOS>BOND
     1    11    12    2
     2    12    13    1
     3    13    14    1
     4    14    15    1
     5    15    16   ar
     6    16    17   ar
     7    17    10    1
     8    10     9    1
     9     9     1    1
    10     1     2    1
    11     2     3    1
    12     3     4    1
    13     4     5   am
    14     5     6    2
    15     5    21    1
    16    21    22    1
    17    22    23   ar
    18    23    24   ar
    19    24    25   ar
    20    25    28    1
    21    28    29   ar
    22    29    30   ar
    23    30    31   ar
    24    31    32   ar
    25    25    26   ar
    26    26    33    1
    27    33    34    1
    28    33    35    1
    29    33    36    1
    30    26    27   ar
    31     4     7    1
    32     7     8    1
    33    17    18   ar
    34    18    19   ar
    35    19    20   ar
    36    20    12    1
    37    20    15   ar
    38     8     1    1
    39    27    22   ar
    40    32    28   ar
@<TRIPOS>MOLECULE
*****
 36 40 0 0 0
SMALL
GASTEIGER

@<TRIPOS>ATOM
      1 N         138.5645  141.2690  160.2417 N.3     1  UNL1       -0.2695
      2 C         138.0126  141.8231  161.5217 C.3     1  UNL1        0.0939
      3 C         138.1035  141.0220  162.7867 C.3     1  UNL1        0.1107
      4 N         138.7463  139.6668  162.7716 N.am    1  UNL1       -0.2764
      5 C         138.8371  138.8658  164.0365 C.2     1  UNL1        0.2301
      6 O         139.4799  137.5105  164.0215 O.2     1  UNL1       -0.2745
      7 C         139.2981  139.1127  161.4916 C.3     1  UNL1        0.1107
      8 C         139.2073  139.9137  160.2267 C.3     1  UNL1        0.0939
      9 C         138.4736  142.0700  158.9768 C.3     1  UNL1        0.0769
     10 C         139.4226  143.2071  158.7393 C.3     1  UNL1        0.0437
     11 O         143.7669  145.3604  163.9472 O.2     1  UNL1       -0.2449
     12 C         143.6597  144.4389  162.7685 C.2     1  UNL1        0.3413
     13 O         144.7270  143.5053  162.2793 O.3     1  UNL1       -0.4404
     14 C         144.1932  142.7786  161.0806 C.3     1  UNL1        0.2356
     15 C         142.7960  143.2630  160.8290 C.ar    1  UNL1        0.0272
     16 C         141.7815  142.9023  159.7847 C.ar    1  UNL1       -0.0047
     17 C         140.4372  143.5678  159.7836 C.ar    1  UNL1       -0.0210
     18 C         140.1075  144.5939  160.8269 C.ar    1  UNL1       -0.0040
     19 C         141.1220  144.9546  161.8711 C.ar    1  UNL1        0.0059
     20 C         142.4663  144.2891  161.8722 C.ar    1  UNL1        0.0751
     21 C         138.2852  139.4200  165.3165 C.3     1  UNL1        0.1115
     22 C         139.1842  140.1587  166.2632 C.ar    1  UNL1       -0.0130
     23 C         140.0838  141.2439  165.7504 C.ar    1  UNL1       -0.0023
     24 C         140.9828  141.9827  166.6970 C.ar    1  UNL1        0.0189
     25 C         140.9821  141.6362  168.1564 C.ar    1  UNL1        0.0901
     26 C         140.0825  140.5510  168.6692 C.ar    1  UNL1        0.0889
     27 C         139.1835  139.8122  167.7226 C.ar    1  UNL1        0.0016
     28 N         141.8811  142.3749  169.1031 N.ar    1  UNL1       -0.1886
     29 C         143.3622  142.1835  169.2431 C.ar    1  UNL1        0.2258
     30 N         143.8532  143.1251  170.3025 N.ar    1  UNL1       -0.1045
     31 N         142.6755  143.8984  170.8173 N.ar    1  UNL1       -0.0222
     32 N         141.4567  143.4348  170.0761 N.ar    1  UNL1       -0.0385
     33 C         140.0818  140.2045  170.1287 C.3     1  UNL1        0.4200
     34 F         140.0812  139.8580  171.5881 F       1  UNL1       -0.1658
     35 F         141.2033  139.2353  169.8991 F       1  UNL1       -0.1658
     36 F         138.9603  141.1737  170.3583 F       1  UNL1       -0.1658
@<TRIPOS>BOND
     1    11    12    2
     2    12    13    1
     3    13    14    1
     4    14    15    1
     5    15    16   ar
     6    16    17   ar
     7    17    10    1
     8    10     9    1
     9     9     1    1
    10     1     2    1
    11     2     3    1
    12     3     4    1
    13     4     5   am
    14     5     6    2
    15     5    21    1
    16    21    22    1
    17    22    23   ar
    18    23    24   ar
    19    24    25   ar
    20    25    28    1
    21    28    29   ar
    22    29    30   ar
    23    30    31   ar
    24    31    32   ar
    25    25    26   ar
    26    26    33    1
    27    33    34    1
    28    33    35    1
    29    33    36    1
    30    26    27   ar
    31     4     7    1
    32     7     8    1
    33    17    18   ar
    34    18    19   ar
    35    19    20   ar
    36    20    12    1
    37    20    15   ar
    38     8     1    1
    39    27    22   ar
    40    32    28   ar
@<TRIPOS>MOLECULE
*****
 36 40 0 0 0
SMALL
GASTEIGER

@<TRIPOS>ATOM
      1 N         141.7677  138.8649  159.7087 N.3     1  UNL1       -0.2695
      2 C         141.7149  138.0648  160.9764 C.3     1  UNL1        0.0939
      3 C         142.6283  138.4049  162.1166 C.3     1  UNL1        0.1107
      4 N         143.5944  139.5452  161.9891 N.am    1  UNL1       -0.2764
      5 C         144.5078  139.8853  163.1293 C.2     1  UNL1        0.2301
      6 O         145.4740  141.0256  163.0019 O.2     1  UNL1       -0.2745
      7 C         143.6472  140.3454  160.7215 C.3     1  UNL1        0.1107
      8 C         142.7339  140.0053  159.5813 C.3     1  UNL1        0.0939
      9 C         140.8543  138.5248  158.5686 C.3     1  UNL1        0.0769
     10 C         139.4652  139.0894  158.5262 C.3     1  UNL1        0.0437
     11 O         137.8810  144.7991  162.4659 O.2     1  UNL1       -0.2449
     12 C         137.8184  143.3008  162.4322 C.2     1  UNL1        0.3413
     13 O         137.2581  142.4174  163.5071 O.3     1  UNL1       -0.4404
     14 C         137.3986  140.9935  163.0569 C.3     1  UNL1        0.2356
     15 C         138.0459  140.9969  161.7037 C.ar    1  UNL1        0.0272
     16 C         138.4325  139.8857  160.7733 C.ar    1  UNL1       -0.0047
     17 C         139.0786  140.2006  159.4567 C.ar    1  UNL1       -0.0210
     18 C         139.3381  141.6266  159.0706 C.ar    1  UNL1       -0.0040
     19 C         138.9514  142.7378  160.0011 C.ar    1  UNL1        0.0059
     20 C         138.3053  142.4229  161.3176 C.ar    1  UNL1        0.0751
     21 C         144.4550  139.0851  164.3970 C.3     1  UNL1        0.1115
     22 C         143.4791  139.4521  165.4755 C.ar    1  UNL1       -0.0130
     23 C         143.5597  138.7874  166.8177 C.ar    1  UNL1       -0.0023
     24 C         142.5839  139.1544  167.8962 C.ar    1  UNL1        0.0189
     25 C         141.5275  140.1860  167.6324 C.ar    1  UNL1        0.0901
     26 C         141.4469  140.8507  166.2901 C.ar    1  UNL1        0.0889
     27 C         142.4227  140.4838  165.2116 C.ar    1  UNL1        0.0016
     28 N         140.5516  140.5530  168.7109 N.ar    1  UNL1       -0.1886
     29 C         140.6932  141.6906  169.6782 C.ar    1  UNL1        0.2258
     30 N         139.4919  141.6875  170.5765 N.ar    1  UNL1       -0.1045
     31 N         138.6079  140.5479  170.1643 N.ar    1  UNL1       -0.0222
     32 N         139.2628  139.8467  169.0113 N.ar    1  UNL1       -0.0385
     33 C         140.3904  141.8824  166.0263 C.3     1  UNL1        0.4200
     34 F         139.3339  142.9140  165.7625 F       1  UNL1       -0.1658
     35 F         139.4152  140.7958  165.6825 F       1  UNL1       -0.1658
     36 F         141.3655  142.9690  166.3702 F       1  UNL1       -0.1658
@<TRIPOS>BOND
     1    11    12    2
     2    12    13    1
     3    13    14    1
     4    14    15    1
     5    15    16   ar
     6    16    17   ar
     7    17    10    1
     8    10     9    1
     9     9     1    1
    10     1     2    1
    11     2     3    1
    12     3     4    1
    13     4     5   am
    14     5     6    2
    15     5    21    1
    16    21    22    1
    17    22    23   ar
    18    23    24   ar
    19    24    25   ar
    20    25    28    1
    21    28    29   ar
    22    29    30   ar
    23    30    31   ar
    24    31    32   ar
    25    25    26   ar
    26    26    33    1
    27    33    34    1
    28    33    35    1
    29    33    36    1
    30    26    27   ar
    31     4     7    1
    32     7     8    1
    33    17    18   ar
    34    18    19   ar
    35    19    20   ar
    36    20    12    1
    37    20    15   ar
    38     8     1    1
    39    27    22   ar
    40    32    28   ar
@<TRIPOS>MOLECULE
*****
 36 40 0 0 0
SMALL
GASTEIGER

@<TRIPOS>ATOM
      1 N         140.0647  138.7569  160.0482 N.3     1  UNL1       -0.2695
      2 C         140.1981  138.1576  161.4168 C.3     1  UNL1        0.0939
      3 C         139.4745  138.7719  162.5783 C.3     1  UNL1        0.1107
      4 N         138.6176  139.9855  162.3713 N.am    1  UNL1       -0.2764
      5 C         137.8941  140.5997  163.5328 C.2     1  UNL1        0.2301
      6 O         137.0371  141.8133  163.3257 O.2     1  UNL1       -0.2745
      7 C         138.4842  140.5848  161.0027 C.3     1  UNL1        0.1107
      8 C         139.2077  139.9705  159.8412 C.3     1  UNL1        0.0939
      9 C         140.7882  138.1426  158.8867 C.3     1  UNL1        0.0769
     10 C         142.2760  138.2910  158.7664 C.3     1  UNL1        0.0437
     11 O         146.0083  141.6240  163.8254 O.2     1  UNL1       -0.2449
     12 C         145.1996  141.8416  162.5809 C.2     1  UNL1        0.3413
     13 O         144.9096  143.1655  161.9381 O.3     1  UNL1       -0.4404
     14 C         144.0697  142.9156  160.7207 C.3     1  UNL1        0.2356
     15 C         143.8406  141.4373  160.6111 C.ar    1  UNL1        0.0272
     16 C         143.0863  140.6098  159.6130 C.ar    1  UNL1       -0.0047
     17 C         143.0303  139.1185  159.7646 C.ar    1  UNL1       -0.0210
     18 C         143.7286  138.4548  160.9143 C.ar    1  UNL1       -0.0040
     19 C         144.4829  139.2823  161.9124 C.ar    1  UNL1        0.0059
     20 C         144.5389  140.7735  161.7608 C.ar    1  UNL1        0.0751
     21 C         138.0275  140.0004  164.9014 C.3     1  UNL1        0.1115
     22 C         138.9660  140.6113  165.8994 C.ar    1  UNL1       -0.0130
     23 C         139.8674  141.7379  165.4893 C.ar    1  UNL1       -0.0023
     24 C         140.8059  142.3488  166.4873 C.ar    1  UNL1        0.0189
     25 C         140.8430  141.8331  167.8953 C.ar    1  UNL1        0.0901
     26 C         139.9416  140.7065  168.3054 C.ar    1  UNL1        0.0889
     27 C         139.0031  140.0956  167.3075 C.ar    1  UNL1        0.0016
     28 N         141.7816  142.4440  168.8934 N.ar    1  UNL1       -0.1886
     29 C         143.2621  142.2148  168.9665 C.ar    1  UNL1        0.2258
     30 N         143.7999  143.0205  170.1118 N.ar    1  UNL1       -0.1045
     31 N         142.6516  143.7477  170.7465 N.ar    1  UNL1       -0.0222
     32 N         141.4042  143.3913  169.9935 N.ar    1  UNL1       -0.0385
     33 C         139.9787  140.1908  169.7135 C.3     1  UNL1        0.4200
     34 F         140.0159  139.6750  171.1216 F       1  UNL1       -0.1658
     35 F         141.2106  139.3981  169.3907 F       1  UNL1       -0.1658
     36 F         138.7469  140.9834  170.0364 F       1  UNL1       -0.1658
@<TRIPOS>BOND
     1    11    12    2
     2    12    13    1
     3    13    14    1
     4    14    15    1
     5    15    16   ar
     6    16    17   ar
     7    17    10    1
     8    10     9    1
     9     9     1    1
    10     1     2    1
    11     2     3    1
    12     3     4    1
    13     4     5   am
    14     5     6    2
    15     5    21    1
    16    21    22    1
    17    22    23   ar
    18    23    24   ar
    19    24    25   ar
    20    25    28    1
    21    28    29   ar
    22    29    30   ar
    23    30    31   ar
    24    31    32   ar
    25    25    26   ar
    26    26    33    1
    27    33    34    1
    28    33    35    1
    29    33    36    1
    30    26    27   ar
    31     4     7    1
    32     7     8    1
    33    17    18   ar
    34    18    19   ar
    35    19    20   ar
    36    20    12    1
    37    20    15   ar
    38     8     1    1
    39    27    22   ar
    40    32    28   ar
