@<TRIPOS>MOLECULE
*****
 36 39 0 0 0
SMALL
GASTEIGER

@<TRIPOS>ATOM
      1 C         142.5650  139.0326  164.2102 C.ar    1  UNL1        0.1532
      2 C         143.6720  139.5580  163.3450 C.ar    1  UNL1        0.0573
      3 C         143.4034  140.6730  162.3782 C.ar    1  UNL1        0.0856
      4 N         144.5105  141.1984  161.5130 N.ar    1  UNL1       -0.2435
      5 C         144.2420  142.3133  160.5462 C.ar    1  UNL1        0.1045
      6 C         142.8664  142.9029  160.4445 C.ar    1  UNL1        0.0856
      7 C         141.7594  142.3775  161.3097 C.ar    1  UNL1        0.0557
      8 C         142.0279  141.2625  162.2765 C.ar    1  UNL1        0.0327
      9 C         140.9210  140.7371  163.1417 C.ar    1  UNL1        0.0203
     10 C         141.1895  139.6222  164.1085 C.ar    1  UNL1        0.0824
     11 N         140.0824  139.0968  164.9737 N.pl3   1  UNL1       -0.3050
     12 C         139.4575  137.7680  164.6674 C.3     1  UNL1        0.0934
     13 C         138.3505  137.2426  165.5325 C.3     1  UNL1        0.0507
     14 C         137.8684  138.0459  166.7040 C.3     1  UNL1        0.1139
     15 O         136.7614  137.5205  167.5690 O.3     1  UNL1       -0.3843
     16 C         138.4934  139.3747  167.0103 C.3     1  UNL1        0.0507
     17 C         139.6004  139.9001  166.1451 C.3     1  UNL1        0.0934
     18 H         136.4724  136.6568  167.2353 H       1  UNL1        0.2103
     19 C         142.5978  144.0178  159.4777 C.2     1  UNL1        0.2455
     20 N         143.2340  144.0022  158.1194 N.am    1  UNL1       -0.3252
     21 O         141.6930  145.1484  159.8692 O.2     1  UNL1       -0.2703
     22 H         143.8279  143.2602  157.8625 H       1  UNL1        0.1453
     23 H         143.0578  144.7340  157.4849 H       1  UNL1        0.1453
     24 N         140.3839  142.9670  161.2080 N.pl3   1  UNL1       -0.3106
     25 H         139.9082  142.9610  160.3460 H       1  UNL1        0.1523
     26 C         139.7331  143.5658  162.4196 C.ar    1  UNL1        0.0763
     27 C         140.5345  144.4206  163.3562 C.ar    1  UNL1        0.0192
     28 C         139.8837  145.0194  164.5677 C.ar    1  UNL1        0.0311
     29 C         138.4315  144.7634  164.8428 C.ar    1  UNL1        0.1425
     30 F         137.7807  145.3622  166.0543 F       1  UNL1       -0.2041
     31 C         137.6301  143.9087  163.9062 C.ar    1  UNL1        0.0605
     32 C         138.2809  143.3098  162.6946 C.ar    1  UNL1        0.1556
     33 F         137.4795  142.4551  161.7581 F       1  UNL1       -0.2028
     34 O         142.8335  137.9177  165.1770 O.3     1  UNL1       -0.4742
     35 C         142.9169  139.1466  167.4646 C.3     1  UNL1        0.0512
     36 C         143.5307  138.2016  166.4744 C.3     1  UNL1        0.2056
@<TRIPOS>BOND
     1    35    36    1
     2    36    34    1
     3    34     1    1
     4     1     2   ar
     5     2     3   ar
     6     3     4   ar
     7     4     5   ar
     8     5     6   ar
     9     6    19    1
    10    19    20   am
    11    19    21    2
    12     6     7   ar
    13     7    24    1
    14    24    26    1
    15    26    27   ar
    16    27    28   ar
    17    28    29   ar
    18    29    30    1
    19    29    31   ar
    20    31    32   ar
    21    32    33    1
    22     7     8   ar
    23     8     9   ar
    24     9    10   ar
    25    10    11    1
    26    11    12    1
    27    12    13    1
    28    13    14    1
    29    14    15    1
    30    14    16    1
    31    16    17    1
    32    10     1   ar
    33    17    11    1
    34     8     3   ar
    35    32    26   ar
    36    20    22    1
    37    20    23    1
    38    24    25    1
    39    15    18    1
@<TRIPOS>MOLECULE
*****
 36 39 0 0 0
SMALL
GASTEIGER

@<TRIPOS>ATOM
      1 C         138.6370  140.0985  165.5368 C.ar    1  UNL1        0.1532
      2 C         137.8556  140.5883  164.3538 C.ar    1  UNL1        0.0573
      3 C         138.3222  141.7946  163.5941 C.ar    1  UNL1        0.0856
      4 N         137.5408  142.2844  162.4110 N.ar    1  UNL1       -0.2435
      5 C         138.0073  143.4908  161.6514 C.ar    1  UNL1        0.1045
      6 C         139.2553  144.2073  162.0748 C.ar    1  UNL1        0.0856
      7 C         140.0367  143.7175  163.2577 C.ar    1  UNL1        0.0557
      8 C         139.5701  142.5112  164.0174 C.ar    1  UNL1        0.0327
      9 C         140.3515  142.0214  165.2004 C.ar    1  UNL1        0.0203
     10 C         139.8849  140.8150  165.9601 C.ar    1  UNL1        0.0824
     11 N         140.6663  140.3253  167.1432 N.pl3   1  UNL1       -0.3050
     12 C         140.1187  140.5008  168.5285 C.3     1  UNL1        0.0934
     13 C         140.9000  140.0111  169.7115 C.3     1  UNL1        0.0507
     14 C         142.2291  139.3457  169.5092 C.3     1  UNL1        0.1139
     15 O         143.0105  138.8560  170.6923 O.3     1  UNL1       -0.3843
     16 C         142.7768  139.1701  168.1239 C.3     1  UNL1        0.0507
     17 C         141.9954  139.6599  166.9408 C.3     1  UNL1        0.0934
     18 H         142.5183  139.0464  171.5061 H       1  UNL1        0.2103
     19 C         139.7219  145.4136  161.3151 C.2     1  UNL1        0.2455
     20 N         139.9564  145.3242  159.8363 N.am    1  UNL1       -0.3252
     21 O         139.9539  146.7094  162.0343 O.2     1  UNL1       -0.2703
     22 H         139.8041  144.4738  159.3642 H       1  UNL1        0.1453
     23 H         140.2626  146.1160  159.3377 H       1  UNL1        0.1453
     24 N         141.2846  144.4340  163.6811 N.pl3   1  UNL1       -0.3106
     25 H         141.2341  145.3641  163.9999 H       1  UNL1        0.1523
     26 C         142.6095  143.7335  163.6186 C.ar    1  UNL1        0.0763
     27 C         143.4162  143.5416  164.8686 C.ar    1  UNL1        0.0192
     28 C         144.7410  142.8411  164.8061 C.ar    1  UNL1        0.0311
     29 C         145.2594  142.3325  163.4936 C.ar    1  UNL1        0.1425
     30 F         146.5843  141.6320  163.4312 F       1  UNL1       -0.2041
     31 C         144.4528  142.5243  162.2436 C.ar    1  UNL1        0.0605
     32 C         143.1278  143.2248  162.3061 C.ar    1  UNL1        0.1556
     33 F         142.3212  143.4167  161.0561 F       1  UNL1       -0.2028
     34 O         138.1704  138.8922  166.2965 O.3     1  UNL1       -0.4742
     35 C         139.5988  137.3079  164.8134 C.3     1  UNL1        0.0512
     36 C         138.4680  137.5171  165.7765 C.3     1  UNL1        0.2056
@<TRIPOS>BOND
     1    35    36    1
     2    36    34    1
     3    34     1    1
     4     1     2   ar
     5     2     3   ar
     6     3     4   ar
     7     4     5   ar
     8     5     6   ar
     9     6    19    1
    10    19    20   am
    11    19    21    2
    12     6     7   ar
    13     7    24    1
    14    24    26    1
    15    26    27   ar
    16    27    28   ar
    17    28    29   ar
    18    29    30    1
    19    29    31   ar
    20    31    32   ar
    21    32    33    1
    22     7     8   ar
    23     8     9   ar
    24     9    10   ar
    25    10    11    1
    26    11    12    1
    27    12    13    1
    28    13    14    1
    29    14    15    1
    30    14    16    1
    31    16    17    1
    32    10     1   ar
    33    17    11    1
    34     8     3   ar
    35    32    26   ar
    36    20    22    1
    37    20    23    1
    38    24    25    1
    39    15    18    1
@<TRIPOS>MOLECULE
*****
 36 39 0 0 0
SMALL
GASTEIGER

@<TRIPOS>ATOM
      1 C         143.8502  142.1393  164.6050 C.ar    1  UNL1        0.1532
      2 C         143.6987  142.6204  166.0176 C.ar    1  UNL1        0.0573
      3 C         142.6936  141.9761  166.9257 C.ar    1  UNL1        0.0856
      4 N         142.5422  142.4572  168.3384 N.ar    1  UNL1       -0.2435
      5 C         141.5371  141.8129  169.2465 C.ar    1  UNL1        0.1045
      6 C         140.6834  140.6874  168.7418 C.ar    1  UNL1        0.0856
      7 C         140.8348  140.2063  167.3292 C.ar    1  UNL1        0.0557
      8 C         141.8399  140.8507  166.4211 C.ar    1  UNL1        0.0327
      9 C         141.9914  140.3696  165.0085 C.ar    1  UNL1        0.0203
     10 C         142.9965  141.0139  164.1004 C.ar    1  UNL1        0.0824
     11 N         143.1479  140.5328  162.6877 N.pl3   1  UNL1       -0.3050
     12 C         144.0387  139.3645  162.3848 C.3     1  UNL1        0.0934
     13 C         144.1901  138.8834  160.9721 C.3     1  UNL1        0.0507
     14 C         143.4508  139.5705  159.8624 C.3     1  UNL1        0.1139
     15 O         143.6023  139.0893  158.4498 O.3     1  UNL1       -0.3843
     16 C         142.5601  140.7387  160.1654 C.3     1  UNL1        0.0507
     17 C         142.4086  141.2198  161.5781 C.3     1  UNL1        0.0934
     18 H         144.2087  138.3325  158.4293 H       1  UNL1        0.2103
     19 C         139.6783  140.0431  169.6499 C.2     1  UNL1        0.2455
     20 N         140.0191  139.7937  171.0892 N.am    1  UNL1       -0.3252
     21 O         138.3322  139.6481  169.1186 O.2     1  UNL1       -0.2703
     22 H         140.9026  140.0530  171.4379 H       1  UNL1        0.1453
     23 H         139.3594  139.3708  171.6851 H       1  UNL1        0.1453
     24 N         139.9812  139.0809  166.8246 N.pl3   1  UNL1       -0.3106
     25 H         139.8534  138.2748  167.3753 H       1  UNL1        0.1523
     26 C         139.3221  139.1835  165.4810 C.ar    1  UNL1        0.0763
     27 C         138.4752  140.3766  165.1503 C.ar    1  UNL1        0.0192
     28 C         137.8162  140.4793  163.8068 C.ar    1  UNL1        0.0311
     29 C         138.0039  139.3889  162.7939 C.ar    1  UNL1        0.1425
     30 F         137.3449  139.4916  161.4505 F       1  UNL1       -0.2041
     31 C         138.8508  138.1958  163.1247 C.ar    1  UNL1        0.0605
     32 C         139.5099  138.0932  164.4683 C.ar    1  UNL1        0.1556
     33 F         140.3568  136.9001  164.7990 F       1  UNL1       -0.2028
     34 O         144.8553  142.7837  163.6969 O.3     1  UNL1       -0.4742
     35 C         143.6676  145.0678  163.3477 C.3     1  UNL1        0.0512
     36 C         144.4388  143.9066  162.7939 C.3     1  UNL1        0.2056
@<TRIPOS>BOND
     1    35    36    1
     2    36    34    1
     3    34     1    1
     4     1     2   ar
     5     2     3   ar
     6     3     4   ar
     7     4     5   ar
     8     5     6   ar
     9     6    19    1
    10    19    20   am
    11    19    21    2
    12     6     7   ar
    13     7    24    1
    14    24    26    1
    15    26    27   ar
    16    27    28   ar
    17    28    29   ar
    18    29    30    1
    19    29    31   ar
    20    31    32   ar
    21    32    33    1
    22     7     8   ar
    23     8     9   ar
    24     9    10   ar
    25    10    11    1
    26    11    12    1
    27    12    13    1
    28    13    14    1
    29    14    15    1
    30    14    16    1
    31    16    17    1
    32    10     1   ar
    33    17    11    1
    34     8     3   ar
    35    32    26   ar
    36    20    22    1
    37    20    23    1
    38    24    25    1
    39    15    18    1
@<TRIPOS>MOLECULE
*****
 36 39 0 0 0
SMALL
GASTEIGER

@<TRIPOS>ATOM
      1 C         138.3231  141.3391  162.5403 C.ar    1  UNL1        0.1532
      2 C         137.7512  140.4069  163.5668 C.ar    1  UNL1        0.0573
      3 C         138.4011  140.2837  164.9130 C.ar    1  UNL1        0.0856
      4 N         137.8291  139.3514  165.9396 N.ar    1  UNL1       -0.2435
      5 C         138.4791  139.2282  167.2858 C.ar    1  UNL1        0.1045
      6 C         139.7011  140.0374  167.6055 C.ar    1  UNL1        0.0856
      7 C         140.2730  140.9696  166.5790 C.ar    1  UNL1        0.0557
      8 C         139.6231  141.0928  165.2328 C.ar    1  UNL1        0.0327
      9 C         140.1950  142.0250  164.2063 C.ar    1  UNL1        0.0203
     10 C         139.5450  142.1481  162.8600 C.ar    1  UNL1        0.0824
     11 N         140.1171  143.0804  161.8335 N.pl3   1  UNL1       -0.3050
     12 C         141.0826  142.5652  160.8077 C.3     1  UNL1        0.0934
     13 C         141.6547  143.4974  159.7812 C.3     1  UNL1        0.0507
     14 C         141.2611  144.9450  159.7805 C.3     1  UNL1        0.1139
     15 O         141.8331  145.8772  158.7540 O.3     1  UNL1       -0.3843
     16 C         140.2955  145.4602  160.8062 C.3     1  UNL1        0.0507
     17 C         139.7235  144.5279  161.8328 C.3     1  UNL1        0.0934
     18 H         142.4348  145.3872  158.1719 H       1  UNL1        0.2103
     19 C         140.3511  139.9142  168.9518 C.2     1  UNL1        0.2455
     20 N         139.5106  139.9246  170.1941 N.am    1  UNL1       -0.3252
     21 O         141.8415  139.7806  169.0556 O.2     1  UNL1       -0.2703
     22 H         138.5324  140.0123  170.1260 H       1  UNL1        0.1453
     23 H         139.9372  139.8438  171.0777 H       1  UNL1        0.1453
     24 N         141.4950  141.7786  166.8988 N.pl3   1  UNL1       -0.3106
     25 H         141.5054  142.3622  167.6916 H       1  UNL1        0.1523
     26 C         142.7011  141.6986  166.0105 C.ar    1  UNL1        0.0763
     27 C         143.3999  142.9540  165.5798 C.ar    1  UNL1        0.0192
     28 C         144.6060  142.8740  164.6916 C.ar    1  UNL1        0.0311
     29 C         145.1133  141.5385  164.2341 C.ar    1  UNL1        0.1425
     30 F         146.3194  141.4585  163.3459 F       1  UNL1       -0.2041
     31 C         144.4145  140.2831  164.6648 C.ar    1  UNL1        0.0605
     32 C         143.2083  140.3632  165.5530 C.ar    1  UNL1        0.1556
     33 F         142.5095  139.1078  165.9838 F       1  UNL1       -0.2028
     34 O         137.6732  141.4623  161.1940 O.3     1  UNL1       -0.4742
     35 C         139.0553  139.4370  160.3350 C.3     1  UNL1        0.0512
     36 C         137.9918  140.4715  160.1139 C.3     1  UNL1        0.2056
@<TRIPOS>BOND
     1    35    36    1
     2    36    34    1
     3    34     1    1
     4     1     2   ar
     5     2     3   ar
     6     3     4   ar
     7     4     5   ar
     8     5     6   ar
     9     6    19    1
    10    19    20   am
    11    19    21    2
    12     6     7   ar
    13     7    24    1
    14    24    26    1
    15    26    27   ar
    16    27    28   ar
    17    28    29   ar
    18    29    30    1
    19    29    31   ar
    20    31    32   ar
    21    32    33    1
    22     7     8   ar
    23     8     9   ar
    24     9    10   ar
    25    10    11    1
    26    11    12    1
    27    12    13    1
    28    13    14    1
    29    14    15    1
    30    14    16    1
    31    16    17    1
    32    10     1   ar
    33    17    11    1
    34     8     3   ar
    35    32    26   ar
    36    20    22    1
    37    20    23    1
    38    24    25    1
    39    15    18    1
@<TRIPOS>MOLECULE
*****
 36 39 0 0 0
SMALL
GASTEIGER

@<TRIPOS>ATOM
      1 C         139.5690  139.9303  167.6198 C.ar    1  UNL1        0.1532
      2 C         138.7992  139.1774  166.5757 C.ar    1  UNL1        0.0573
      3 C         138.9162  139.5661  165.1316 C.ar    1  UNL1        0.0856
      4 N         138.1463  138.8131  164.0874 N.ar    1  UNL1       -0.2435
      5 C         138.2633  139.2019  162.6434 C.ar    1  UNL1        0.1045
      6 C         139.1503  140.3437  162.2436 C.ar    1  UNL1        0.0856
      7 C         139.9202  141.0966  163.2878 C.ar    1  UNL1        0.0557
      8 C         139.8031  140.7078  164.7318 C.ar    1  UNL1        0.0327
      9 C         140.5730  141.4607  165.7760 C.ar    1  UNL1        0.0203
     10 C         140.4560  141.0719  167.2200 C.ar    1  UNL1        0.0824
     11 N         141.2259  141.8249  168.2642 N.pl3   1  UNL1       -0.3050
     12 C         140.5736  142.9506  169.0108 C.3     1  UNL1        0.0934
     13 C         141.3435  143.7036  170.0550 C.3     1  UNL1        0.0507
     14 C         142.7657  143.3309  170.3526 C.3     1  UNL1        0.1139
     15 O         143.5355  144.0838  171.3968 O.3     1  UNL1       -0.3843
     16 C         143.4179  142.2052  169.6060 C.3     1  UNL1        0.0507
     17 C         142.6480  141.4522  168.5618 C.3     1  UNL1        0.0934
     18 H         142.9713  144.7736  171.7799 H       1  UNL1        0.2103
     19 C         139.2674  140.7324  160.7996 C.2     1  UNL1        0.2455
     20 N         138.0309  140.9541  159.9800 N.am    1  UNL1       -0.3252
     21 O         140.6210  140.8995  160.1752 O.2     1  UNL1       -0.2703
     22 H         137.1424  140.8445  160.3898 H       1  UNL1        0.1453
     23 H         138.1077  141.2093  159.0322 H       1  UNL1        0.1453
     24 N         140.8071  142.2382  162.8880 N.pl3   1  UNL1       -0.3106
     25 H         140.4127  143.0650  162.5272 H       1  UNL1        0.1523
     26 C         142.2950  142.1203  163.0379 C.ar    1  UNL1        0.0763
     27 C         143.0005  140.8834  162.5667 C.ar    1  UNL1        0.0192
     28 C         144.4883  140.7654  162.7166 C.ar    1  UNL1        0.0311
     29 C         145.2706  141.8844  163.3378 C.ar    1  UNL1        0.1425
     30 F         146.7584  141.7664  163.4877 F       1  UNL1       -0.2041
     31 C         144.5651  143.1214  163.8091 C.ar    1  UNL1        0.0605
     32 C         143.0772  143.2393  163.6592 C.ar    1  UNL1        0.1556
     33 F         142.3716  144.4763  164.1305 F       1  UNL1       -0.2028
     34 O         139.4520  139.5415  169.0639 O.3     1  UNL1       -0.4742
     35 C         137.3429  139.4377  170.5775 C.3     1  UNL1        0.0512
     36 C         138.4514  140.2270  169.9464 C.3     1  UNL1        0.2056
@<TRIPOS>BOND
     1    35    36    1
     2    36    34    1
     3    34     1    1
     4     1     2   ar
     5     2     3   ar
     6     3     4   ar
     7     4     5   ar
     8     5     6   ar
     9     6    19    1
    10    19    20   am
    11    19    21    2
    12     6     7   ar
    13     7    24    1
    14    24    26    1
    15    26    27   ar
    16    27    28   ar
    17    28    29   ar
    18    29    30    1
    19    29    31   ar
    20    31    32   ar
    21    32    33    1
    22     7     8   ar
    23     8     9   ar
    24     9    10   ar
    25    10    11    1
    26    11    12    1
    27    12    13    1
    28    13    14    1
    29    14    15    1
    30    14    16    1
    31    16    17    1
    32    10     1   ar
    33    17    11    1
    34     8     3   ar
    35    32    26   ar
    36    20    22    1
    37    20    23    1
    38    24    25    1
    39    15    18    1
@<TRIPOS>MOLECULE
*****
 36 39 0 0 0
SMALL
GASTEIGER

@<TRIPOS>ATOM
      1 C         139.4147  138.2257  164.0374 C.ar    1  UNL1        0.1532
      2 C         138.5873  138.2027  165.2883 C.ar    1  UNL1        0.0573
      3 C         139.0178  138.9949  166.4871 C.ar    1  UNL1        0.0856
      4 N         138.1903  138.9718  167.7380 N.ar    1  UNL1       -0.2435
      5 C         138.6208  139.7640  168.9368 C.ar    1  UNL1        0.1045
      6 C         139.8789  140.5792  168.8846 C.ar    1  UNL1        0.0856
      7 C         140.7064  140.6023  167.6338 C.ar    1  UNL1        0.0557
      8 C         140.2758  139.8101  166.4350 C.ar    1  UNL1        0.0327
      9 C         141.1033  139.8331  165.1841 C.ar    1  UNL1        0.0203
     10 C         140.6727  139.0409  163.9854 C.ar    1  UNL1        0.0824
     11 N         141.5003  139.0640  162.7344 N.pl3   1  UNL1       -0.3050
     12 C         141.3302  140.1768  161.7431 C.3     1  UNL1        0.0934
     13 C         142.1577  140.1999  160.4922 C.3     1  UNL1        0.0507
     14 C         143.1553  139.1102  160.2327 C.3     1  UNL1        0.1139
     15 O         143.9828  139.1333  158.9818 O.3     1  UNL1       -0.3843
     16 C         143.3254  137.9974  161.2240 C.3     1  UNL1        0.0507
     17 C         142.4979  137.9743  162.4749 C.3     1  UNL1        0.0934
     18 H         143.7501  139.9136  158.4546 H       1  UNL1        0.2103
     19 C         140.3094  141.3714  170.0834 C.2     1  UNL1        0.2455
     20 N         140.5387  140.6815  171.3954 N.am    1  UNL1       -0.3252
     21 O         140.5107  142.8536  169.9701 O.2     1  UNL1       -0.2703
     22 H         140.4066  139.7088  171.4698 H       1  UNL1        0.1453
     23 H         140.8213  141.2015  172.1822 H       1  UNL1        0.1453
     24 N         141.9644  141.4175  167.5817 N.pl3   1  UNL1       -0.3106
     25 H         142.6183  141.3610  168.3155 H       1  UNL1        0.1523
     26 C         142.2261  142.3189  166.4116 C.ar    1  UNL1        0.0763
     27 C         143.6053  142.4102  165.8289 C.ar    1  UNL1        0.0192
     28 C         143.8671  143.3115  164.6589 C.ar    1  UNL1        0.0311
     29 C         142.7496  144.1216  164.0714 C.ar    1  UNL1        0.1425
     30 F         143.0113  145.0229  162.9014 F       1  UNL1       -0.2041
     31 C         141.3704  144.0303  164.6541 C.ar    1  UNL1        0.0605
     32 C         141.1087  143.1289  165.8242 C.ar    1  UNL1        0.1556
     33 F         139.7295  143.0377  166.4068 F       1  UNL1       -0.2028
     34 O         138.9842  137.4335  162.8387 O.3     1  UNL1       -0.4742
     35 C         137.7480  139.5181  161.9024 C.3     1  UNL1        0.0512
     36 C         138.1182  138.0687  161.7915 C.3     1  UNL1        0.2056
@<TRIPOS>BOND
     1    35    36    1
     2    36    34    1
     3    34     1    1
     4     1     2   ar
     5     2     3   ar
     6     3     4   ar
     7     4     5   ar
     8     5     6   ar
     9     6    19    1
    10    19    20   am
    11    19    21    2
    12     6     7   ar
    13     7    24    1
    14    24    26    1
    15    26    27   ar
    16    27    28   ar
    17    28    29   ar
    18    29    30    1
    19    29    31   ar
    20    31    32   ar
    21    32    33    1
    22     7     8   ar
    23     8     9   ar
    24     9    10   ar
    25    10    11    1
    26    11    12    1
    27    12    13    1
    28    13    14    1
    29    14    15    1
    30    14    16    1
    31    16    17    1
    32    10     1   ar
    33    17    11    1
    34     8     3   ar
    35    32    26   ar
    36    20    22    1
    37    20    23    1
    38    24    25    1
    39    15    18    1
@<TRIPOS>MOLECULE
*****
 36 39 0 0 0
SMALL
GASTEIGER

@<TRIPOS>ATOM
      1 C         139.2952  138.5733  163.2472 C.ar    1  UNL1        0.1532
      2 C         138.6424  138.7170  164.5901 C.ar    1  UNL1        0.0573
      3 C         139.4312  139.2354  165.7558 C.ar    1  UNL1        0.0856
      4 N         138.7784  139.3791  167.0987 N.ar    1  UNL1       -0.2435
      5 C         139.5672  139.8975  168.2645 C.ar    1  UNL1        0.1045
      6 C         141.0089  140.2723  168.0873 C.ar    1  UNL1        0.0856
      7 C         141.6616  140.1286  166.7445 C.ar    1  UNL1        0.0557
      8 C         140.8728  139.6101  165.5788 C.ar    1  UNL1        0.0327
      9 C         141.5255  139.4664  164.2359 C.ar    1  UNL1        0.0203
     10 C         140.7367  138.9480  163.0702 C.ar    1  UNL1        0.0824
     11 N         141.3895  138.8043  161.7273 N.pl3   1  UNL1       -0.3050
     12 C         142.2885  137.6356  161.4516 C.3     1  UNL1        0.0934
     13 C         142.9413  137.4919  160.1088 C.3     1  UNL1        0.0507
     14 C         142.6952  138.5169  159.0416 C.3     1  UNL1        0.1139
     15 O         143.3480  138.3732  157.6988 O.3     1  UNL1       -0.3843
     16 C         141.7962  139.6856  159.3173 C.3     1  UNL1        0.0507
     17 C         141.1434  139.8293  160.6602 C.3     1  UNL1        0.0934
     18 H         143.8918  137.5700  157.6880 H       1  UNL1        0.2103
     19 C         141.7977  140.7907  169.2531 C.2     1  UNL1        0.2455
     20 N         141.8241  140.0233  170.5416 N.am    1  UNL1       -0.3252
     21 O         142.5602  142.0767  169.1303 O.2     1  UNL1       -0.2703
     22 H         141.3236  139.1793  170.6222 H       1  UNL1        0.1453
     23 H         142.3418  140.3636  171.3067 H       1  UNL1        0.1453
     24 N         143.1032  140.5033  166.5674 N.pl3   1  UNL1       -0.3106
     25 H         143.7943  140.0790  167.1257 H       1  UNL1        0.1523
     26 C         143.4919  141.5245  165.5397 C.ar    1  UNL1        0.0763
     27 C         142.7831  142.8456  165.4896 C.ar    1  UNL1        0.0192
     28 C         143.1718  143.8667  164.4620 C.ar    1  UNL1        0.0311
     29 C         144.2693  143.5669  163.4844 C.ar    1  UNL1        0.1425
     30 F         144.6580  144.5881  162.4567 F       1  UNL1       -0.2041
     31 C         144.9781  142.2459  163.5345 C.ar    1  UNL1        0.0605
     32 C         144.5894  141.2247  164.5622 C.ar    1  UNL1        0.1556
     33 F         145.2982  139.9037  164.6123 F       1  UNL1       -0.2028
     34 O         138.5063  138.0548  162.0815 O.3     1  UNL1       -0.4742
     35 C         137.6590  140.4533  161.5532 C.3     1  UNL1        0.0512
     36 C         137.5861  138.9716  161.3314 C.3     1  UNL1        0.2056
@<TRIPOS>BOND
     1    35    36    1
     2    36    34    1
     3    34     1    1
     4     1     2   ar
     5     2     3   ar
     6     3     4   ar
     7     4     5   ar
     8     5     6   ar
     9     6    19    1
    10    19    20   am
    11    19    21    2
    12     6     7   ar
    13     7    24    1
    14    24    26    1
    15    26    27   ar
    16    27    28   ar
    17    28    29   ar
    18    29    30    1
    19    29    31   ar
    20    31    32   ar
    21    32    33    1
    22     7     8   ar
    23     8     9   ar
    24     9    10   ar
    25    10    11    1
    26    11    12    1
    27    12    13    1
    28    13    14    1
    29    14    15    1
    30    14    16    1
    31    16    17    1
    32    10     1   ar
    33    17    11    1
    34     8     3   ar
    35    32    26   ar
    36    20    22    1
    37    20    23    1
    38    24    25    1
    39    15    18    1
@<TRIPOS>MOLECULE
*****
 36 39 0 0 0
SMALL
GASTEIGER

@<TRIPOS>ATOM
      1 C         143.2491  143.4452  164.3119 C.ar    1  UNL1        0.1532
      2 C         143.7369  143.0212  165.6655 C.ar    1  UNL1        0.0573
      3 C         142.8316  142.2528  166.5821 C.ar    1  UNL1        0.0856
      4 N         143.3195  141.8287  167.9357 N.ar    1  UNL1       -0.2435
      5 C         142.4142  141.0603  168.8523 C.ar    1  UNL1        0.1045
      6 C         141.0212  140.7159  168.4152 C.ar    1  UNL1        0.0856
      7 C         140.5334  141.1400  167.0617 C.ar    1  UNL1        0.0557
      8 C         141.4387  141.9084  166.1451 C.ar    1  UNL1        0.0327
      9 C         140.9509  142.3325  164.7915 C.ar    1  UNL1        0.0203
     10 C         141.8561  143.1009  163.8749 C.ar    1  UNL1        0.0824
     11 N         141.3683  143.5250  162.5213 N.pl3   1  UNL1       -0.3050
     12 C         141.2665  142.5203  161.4121 C.3     1  UNL1        0.0934
     13 C         140.7787  142.9443  160.0585 C.3     1  UNL1        0.0507
     14 C         140.3927  144.3731  159.8140 C.3     1  UNL1        0.1139
     15 O         139.9049  144.7971  158.4605 O.3     1  UNL1       -0.3843
     16 C         140.4945  145.3778  160.9232 C.3     1  UNL1        0.0507
     17 C         140.9824  144.9537  162.2768 C.3     1  UNL1        0.0934
     18 H         139.8998  144.0319  157.8643 H       1  UNL1        0.2103
     19 C         140.1160  139.9475  169.3318 C.2     1  UNL1        0.2455
     20 N         140.6045  139.5216  170.6845 N.am    1  UNL1       -0.3252
     21 O         138.7222  139.6051  168.8956 O.2     1  UNL1       -0.2703
     22 H         141.5192  139.7463  170.9708 H       1  UNL1        0.1453
     23 H         140.0103  139.0172  171.2861 H       1  UNL1        0.1453
     24 N         139.1405  140.7957  166.6247 N.pl3   1  UNL1       -0.3106
     25 H         138.3691  141.0941  167.1587 H       1  UNL1        0.1523
     26 C         138.9227  139.9966  165.3740 C.ar    1  UNL1        0.0763
     27 C         139.4932  138.6141  165.2585 C.ar    1  UNL1        0.0192
     28 C         139.2754  137.8150  164.0079 C.ar    1  UNL1        0.0311
     29 C         138.4872  138.3983  162.8727 C.ar    1  UNL1        0.1425
     30 F         138.2695  137.5992  161.6222 F       1  UNL1       -0.2041
     31 C         137.9168  139.7808  162.9883 C.ar    1  UNL1        0.0605
     32 C         138.1346  140.5799  164.2389 C.ar    1  UNL1        0.1556
     33 F         137.5641  141.9624  164.3544 F       1  UNL1       -0.2028
     34 O         144.1543  144.2137  163.3953 O.3     1  UNL1       -0.4742
     35 C         145.0286  142.0723  162.2121 C.3     1  UNL1        0.0512
     36 C         144.7434  143.5447  162.1889 C.3     1  UNL1        0.2056
@<TRIPOS>BOND
     1    35    36    1
     2    36    34    1
     3    34     1    1
     4     1     2   ar
     5     2     3   ar
     6     3     4   ar
     7     4     5   ar
     8     5     6   ar
     9     6    19    1
    10    19    20   am
    11    19    21    2
    12     6     7   ar
    13     7    24    1
    14    24    26    1
    15    26    27   ar
    16    27    28   ar
    17    28    29   ar
    18    29    30    1
    19    29    31   ar
    20    31    32   ar
    21    32    33    1
    22     7     8   ar
    23     8     9   ar
    24     9    10   ar
    25    10    11    1
    26    11    12    1
    27    12    13    1
    28    13    14    1
    29    14    15    1
    30    14    16    1
    31    16    17    1
    32    10     1   ar
    33    17    11    1
    34     8     3   ar
    35    32    26   ar
    36    20    22    1
    37    20    23    1
    38    24    25    1
    39    15    18    1
@<TRIPOS>MOLECULE
*****
 36 39 0 0 0
SMALL
GASTEIGER

@<TRIPOS>ATOM
      1 C         141.2428  138.5130  163.3515 C.ar    1  UNL1        0.1532
      2 C         142.0340  138.3661  164.6173 C.ar    1  UNL1        0.0573
      3 C         141.9404  139.4141  165.6863 C.ar    1  UNL1        0.0856
      4 N         142.7317  139.2672  166.9521 N.ar    1  UNL1       -0.2435
      5 C         142.6381  140.3153  168.0211 C.ar    1  UNL1        0.1045
      6 C         141.7530  141.5103  167.8242 C.ar    1  UNL1        0.0856
      7 C         140.9617  141.6572  166.5585 C.ar    1  UNL1        0.0557
      8 C         141.0554  140.6091  165.4895 C.ar    1  UNL1        0.0327
      9 C         140.2641  140.7560  164.2237 C.ar    1  UNL1        0.0203
     10 C         140.3578  139.7080  163.1547 C.ar    1  UNL1        0.0824
     11 N         139.5664  139.8549  161.8889 N.pl3   1  UNL1       -0.3050
     12 C         138.1345  139.4103  161.8437 C.3     1  UNL1        0.0934
     13 C         137.3432  139.5573  160.5780 C.3     1  UNL1        0.0507
     14 C         137.9837  140.1488  159.3573 C.3     1  UNL1        0.1139
     15 O         137.1923  140.2957  158.0916 O.3     1  UNL1       -0.3843
     16 C         139.4156  140.5934  159.4025 C.3     1  UNL1        0.0507
     17 C         140.2069  140.4464  160.6684 C.3     1  UNL1        0.0934
     18 H         136.2923  139.9627  158.2325 H       1  UNL1        0.2103
     19 C         141.6593  142.5584  168.8932 C.2     1  UNL1        0.2455
     20 N         142.8726  142.9196  169.6978 N.am    1  UNL1       -0.3252
     21 O         140.3523  143.2453  169.1577 O.2     1  UNL1       -0.2703
     22 H         143.7305  142.4688  169.5243 H       1  UNL1        0.1453
     23 H         142.8111  143.6075  170.3994 H       1  UNL1        0.1453
     24 N         140.0767  142.8522  166.3617 N.pl3   1  UNL1       -0.3106
     25 H         139.4143  143.0927  167.0492 H       1  UNL1        0.1523
     26 C         140.2010  143.6808  165.1174 C.ar    1  UNL1        0.0763
     27 C         141.5574  144.0592  164.6007 C.ar    1  UNL1        0.0192
     28 C         141.6816  144.8877  163.3565 C.ar    1  UNL1        0.0311
     29 C         140.4495  145.3379  162.6290 C.ar    1  UNL1        0.1425
     30 F         140.5738  146.1664  161.3848 F       1  UNL1       -0.2041
     31 C         139.0931  144.9595  163.1457 C.ar    1  UNL1        0.0605
     32 C         138.9689  144.1309  164.3900 C.ar    1  UNL1        0.1556
     33 F         137.6125  143.7525  164.9067 F       1  UNL1       -0.2028
     34 O         141.3364  137.4649  162.2825 O.3     1  UNL1       -0.4742
     35 C         143.7430  137.9382  161.4256 C.3     1  UNL1        0.0512
     36 C         142.3005  137.6366  161.1463 C.3     1  UNL1        0.2056
@<TRIPOS>BOND
     1    35    36    1
     2    36    34    1
     3    34     1    1
     4     1     2   ar
     5     2     3   ar
     6     3     4   ar
     7     4     5   ar
     8     5     6   ar
     9     6    19    1
    10    19    20   am
    11    19    21    2
    12     6     7   ar
    13     7    24    1
    14    24    26    1
    15    26    27   ar
    16    27    28   ar
    17    28    29   ar
    18    29    30    1
    19    29    31   ar
    20    31    32   ar
    21    32    33    1
    22     7     8   ar
    23     8     9   ar
    24     9    10   ar
    25    10    11    1
    26    11    12    1
    27    12    13    1
    28    13    14    1
    29    14    15    1
    30    14    16    1
    31    16    17    1
    32    10     1   ar
    33    17    11    1
    34     8     3   ar
    35    32    26   ar
    36    20    22    1
    37    20    23    1
    38    24    25    1
    39    15    18    1
