@<TRIPOS>MOLECULE
*****
 40 46 0 0 0
SMALL
GASTEIGER

@<TRIPOS>ATOM
      1 C         137.7227  139.5178  161.7986 C.3     1  UNL1        0.0700
      2 C         138.3181  138.2021  162.2041 C.3     1  UNL1        0.0193
      3 C         138.8999  138.0333  163.5763 C.3     1  UNL1        0.0287
      4 C         138.8863  139.1802  164.5431 C.3     1  UNL1        0.0955
      5 C         138.2909  140.4958  164.1376 C.3     1  UNL1        0.0287
      6 C         137.7091  140.6646  162.7653 C.3     1  UNL1        0.0193
      7 O         138.5557  139.3205  163.8021 O.3     1  UNL1       -0.3571
      8 C         138.0297  139.4731  162.5614 C.3     1  UNL1        0.1562
      9 N         137.1409  139.6866  160.4263 N.3     1  UNL1       -0.2926
     10 H         136.8471  138.7608  160.1151 H       1  UNL1        0.1236
     11 C         137.9754  140.2692  159.3245 C.3     1  UNL1        0.1152
     12 O         141.7543  135.0214  154.9736 O.2     1  UNL1       -0.2707
     13 C         141.7728  136.0998  156.0161 C.2     1  UNL1        0.2718
     14 C         143.0693  136.5071  156.6508 C.3     1  UNL1        0.2898
     15 O         143.0879  137.5855  157.6933 O.3     1  UNL1       -0.4628
     16 C         141.8098  138.2564  158.1011 C.ar    1  UNL1        0.1708
     17 C         141.8282  139.3348  159.1436 C.ar    1  UNL1        0.0411
     18 C         140.5501  140.0057  159.5514 C.ar    1  UNL1        0.0193
     19 C         139.2535  139.5983  158.9166 C.ar    1  UNL1        0.0765
     20 N         139.2351  138.5199  157.8741 N.ar    1  UNL1       -0.2304
     21 C         140.5132  137.8490  157.4664 C.ar    1  UNL1        0.1682
     22 N         140.4947  136.7707  156.4239 N.am    1  UNL1       -0.2639
     23 H         139.6437  136.5033  156.0073 H       1  UNL1        0.1565
     24 C         139.4681  139.0113  165.9153 C.3     1  UNL1        0.0603
     25 C         140.5631  139.9235  166.3831 C.3     1  UNL1        0.1322
     26 O         141.1477  139.6592  165.0272 O.3     1  UNL1       -0.3806
     27 C         141.7804  140.7803  166.5675 C.3     1  UNL1        0.1401
     28 N         141.7193  141.3835  167.9395 N.ar    1  UNL1       -0.2915
     29 C         142.6443  142.3110  168.6703 C.ar    1  UNL1        0.2611
     30 O         143.8994  142.7951  168.0067 O.2     1  UNL1       -0.2670
     31 C         142.3142  142.7543  170.0647 C.ar    1  UNL1        0.0623
     32 C         141.0591  142.2702  170.7283 C.ar    1  UNL1        0.0254
     33 C         140.1341  141.3427  169.9975 C.ar    1  UNL1        0.0971
     34 N         138.8300  140.7085  170.4067 N.ar    1  UNL1       -0.2415
     35 C         138.0057  139.7885  169.5557 C.ar    1  UNL1        0.1100
     36 C         138.4656  139.4328  168.1729 C.ar    1  UNL1        0.0764
     37 CL        137.6413  138.5128  167.3219 Cl      1  UNL1       -0.0808
     38 C         139.7497  139.9970  167.6412 C.ar    1  UNL1        0.0331
     39 C         140.4642  140.8994  168.6031 C.ar    1  UNL1        0.0792
     40 H         141.9825  140.1445  164.9348 H       1  UNL1        0.2108
@<TRIPOS>BOND
     1    12    13    2
     2    13    14    1
     3    14    15    1
     4    15    16    1
     5    16    17   ar
     6    17    18   ar
     7    18    19   ar
     8    19    11    1
     9    11     9    1
    10     9     1    1
    11     1     2    1
    12     2     3    1
    13     3     4    1
    14     4    24    1
    15    24    25    1
    16    25    26    1
    17    25    27    1
    18    27    28    1
    19    28    29   ar
    20    29    30    2
    21    29    31   ar
    22    31    32   ar
    23    32    33   ar
    24    33    34   ar
    25    34    35   ar
    26    35    36   ar
    27    36    37    1
    28    36    38   ar
    29    38    39   ar
    30     4     5    1
    31     5     6    1
    32     4     7    1
    33     7     8    1
    34    19    20   ar
    35    20    21   ar
    36    21    22    1
    37    22    13   am
    38    21    16   ar
    39     6     1    1
    40     8     1    1
    41    38    25    1
    42    39    28   ar
    43    39    33   ar
    44     9    10    1
    45    26    40    1
    46    22    23    1
@<TRIPOS>MOLECULE
*****
 40 46 0 0 0
SMALL
GASTEIGER

@<TRIPOS>ATOM
      1 C         137.7378  139.5501  161.8386 C.3     1  UNL1        0.0700
      2 C         138.4224  138.2689  162.2123 C.3     1  UNL1        0.0193
      3 C         138.9945  138.0979  163.5884 C.3     1  UNL1        0.0287
      4 C         138.8820  139.2082  164.5907 C.3     1  UNL1        0.0955
      5 C         138.1974  140.4895  164.2170 C.3     1  UNL1        0.0287
      6 C         137.6253  140.6604  162.8409 C.3     1  UNL1        0.0193
      7 O         138.5531  139.3483  163.8490 O.3     1  UNL1       -0.3571
      8 C         138.0358  139.5029  162.6048 C.3     1  UNL1        0.1562
      9 N         137.1657  139.7212  160.4626 N.3     1  UNL1       -0.2926
     10 H         136.9032  138.7915  160.1352 H       1  UNL1        0.1236
     11 C         137.9939  140.3443  159.3782 C.3     1  UNL1        0.1152
     12 O         143.8818  144.5984  162.2041 O.2     1  UNL1       -0.2707
     13 C         143.3905  143.3875  161.4675 C.2     1  UNL1        0.2718
     14 C         144.3706  142.3840  160.9362 C.3     1  UNL1        0.2898
     15 O         143.8794  141.1732  160.1995 O.3     1  UNL1       -0.4628
     16 C         142.4080  140.9660  159.9942 C.ar    1  UNL1        0.1708
     17 C         141.9167  139.7552  159.2576 C.ar    1  UNL1        0.0411
     18 C         140.4453  139.5480  159.0523 C.ar    1  UNL1        0.0193
     19 C         139.4652  140.5516  159.5836 C.ar    1  UNL1        0.0765
     20 N         139.9566  141.7623  160.3202 N.ar    1  UNL1       -0.2304
     21 C         141.4279  141.9695  160.5255 C.ar    1  UNL1        0.1682
     22 N         141.9191  143.1803  161.2621 N.am    1  UNL1       -0.2639
     23 H         141.2759  143.8390  161.6109 H       1  UNL1        0.1565
     24 C         139.4541  139.0372  165.9668 C.3     1  UNL1        0.0603
     25 C         140.5573  139.9379  166.4376 C.3     1  UNL1        0.1322
     26 O         141.1390  139.6739  165.0804 O.3     1  UNL1       -0.3806
     27 C         141.7821  140.7834  166.6248 C.3     1  UNL1        0.1401
     28 N         141.7268  141.3817  167.9992 N.ar    1  UNL1       -0.2915
     29 C         142.6602  142.2982  168.7332 C.ar    1  UNL1        0.2611
     30 O         143.9191  142.7739  168.0709 O.2     1  UNL1       -0.2670
     31 C         142.3346  142.7389  170.1295 C.ar    1  UNL1        0.0623
     32 C         141.0757  142.2631  170.7918 C.ar    1  UNL1        0.0254
     33 C         140.1423  141.3466  170.0578 C.ar    1  UNL1        0.0971
     34 N         138.8329  140.7221  170.4651 N.ar    1  UNL1       -0.2415
     35 C         138.0002  139.8128  169.6109 C.ar    1  UNL1        0.1100
     36 C         138.4563  139.4585  168.2265 C.ar    1  UNL1        0.0764
     37 CL        137.6237  138.5491  167.3723 Cl      1  UNL1       -0.0808
     38 C         139.7451  140.0136  167.6964 C.ar    1  UNL1        0.0331
     39 C         140.4679  140.9059  168.6615 C.ar    1  UNL1        0.0792
     40 H         141.9779  140.1523  164.9896 H       1  UNL1        0.2108
@<TRIPOS>BOND
     1    12    13    2
     2    13    14    1
     3    14    15    1
     4    15    16    1
     5    16    17   ar
     6    17    18   ar
     7    18    19   ar
     8    19    11    1
     9    11     9    1
    10     9     1    1
    11     1     2    1
    12     2     3    1
    13     3     4    1
    14     4    24    1
    15    24    25    1
    16    25    26    1
    17    25    27    1
    18    27    28    1
    19    28    29   ar
    20    29    30    2
    21    29    31   ar
    22    31    32   ar
    23    32    33   ar
    24    33    34   ar
    25    34    35   ar
    26    35    36   ar
    27    36    37    1
    28    36    38   ar
    29    38    39   ar
    30     4     5    1
    31     5     6    1
    32     4     7    1
    33     7     8    1
    34    19    20   ar
    35    20    21   ar
    36    21    22    1
    37    22    13   am
    38    21    16   ar
    39     6     1    1
    40     8     1    1
    41    38    25    1
    42    39    28   ar
    43    39    33   ar
    44     9    10    1
    45    26    40    1
    46    22    23    1
@<TRIPOS>MOLECULE
*****
 40 46 0 0 0
SMALL
GASTEIGER

@<TRIPOS>ATOM
      1 C         137.9917  139.6131  161.2431 C.3     1  UNL1        0.0700
      2 C         138.2748  140.7850  162.1356 C.3     1  UNL1        0.0193
      3 C         139.0755  140.5963  163.3899 C.3     1  UNL1        0.0287
      4 C         139.5932  139.2356  163.7517 C.3     1  UNL1        0.0955
      5 C         139.3101  138.0637  162.8592 C.3     1  UNL1        0.0287
      6 C         138.5094  138.2525  161.6049 C.3     1  UNL1        0.0193
      7 O         139.1590  139.2899  163.0542 O.3     1  UNL1       -0.3571
      8 C         138.4350  139.4605  161.9201 C.3     1  UNL1        0.1562
      9 N         137.1910  139.8018  159.9887 N.3     1  UNL1       -0.2926
     10 H         136.7554  138.9035  159.7795 H       1  UNL1        0.1236
     11 C         137.8661  140.2593  158.7298 C.3     1  UNL1        0.1152
     12 O         142.0925  134.7131  155.2472 O.2     1  UNL1       -0.2707
     13 C         142.0180  135.9944  156.0237 C.2     1  UNL1        0.2718
     14 C         143.2776  136.7081  156.4158 C.3     1  UNL1        0.2898
     15 O         143.2032  137.9894  157.1923 O.3     1  UNL1       -0.4628
     16 C         141.8689  138.5568  157.5767 C.ar    1  UNL1        0.1708
     17 C         141.7943  139.8381  158.3531 C.ar    1  UNL1        0.0411
     18 C         140.4601  140.4055  158.7375 C.ar    1  UNL1        0.0193
     19 C         139.2004  139.6918  158.3454 C.ar    1  UNL1        0.0765
     20 N         139.2750  138.4106  157.5690 N.ar    1  UNL1       -0.2304
     21 C         140.6092  137.8431  157.1846 C.ar    1  UNL1        0.1682
     22 N         140.6837  136.5619  156.4081 N.am    1  UNL1       -0.2639
     23 H         139.8569  136.0934  156.1508 H       1  UNL1        0.1565
     24 C         140.3938  139.0469  165.0060 C.3     1  UNL1        0.0603
     25 C         139.8009  139.4079  166.3357 C.3     1  UNL1        0.1322
     26 O         138.7193  138.4481  165.9371 O.3     1  UNL1       -0.3806
     27 C         138.9819  139.5682  167.5821 C.3     1  UNL1        0.1401
     28 N         139.6813  140.5516  168.4731 N.ar    1  UNL1       -0.2915
     29 C         139.3404  141.0974  169.8280 C.ar    1  UNL1        0.2611
     30 O         138.0891  140.6499  170.5238 O.2     1  UNL1       -0.2670
     31 C         140.2508  142.0906  170.4872 C.ar    1  UNL1        0.0623
     32 C         141.5021  142.5381  169.7915 C.ar    1  UNL1        0.0254
     33 C         141.8430  141.9923  168.4366 C.ar    1  UNL1        0.0971
     34 N         143.0096  142.2559  167.5201 N.ar    1  UNL1       -0.2415
     35 C         143.2181  141.6262  166.1748 C.ar    1  UNL1        0.1100
     36 C         142.2166  140.6443  165.6429 C.ar    1  UNL1        0.0764
     37 CL        142.4251  140.0145  164.2976 Cl      1  UNL1       -0.0808
     38 C         141.0065  140.2922  166.4564 C.ar    1  UNL1        0.0331
     39 C         140.9326  140.9990  167.7774 C.ar    1  UNL1        0.0792
     40 H         138.0533  138.4010  166.6408 H       1  UNL1        0.2108
@<TRIPOS>BOND
     1    12    13    2
     2    13    14    1
     3    14    15    1
     4    15    16    1
     5    16    17   ar
     6    17    18   ar
     7    18    19   ar
     8    19    11    1
     9    11     9    1
    10     9     1    1
    11     1     2    1
    12     2     3    1
    13     3     4    1
    14     4    24    1
    15    24    25    1
    16    25    26    1
    17    25    27    1
    18    27    28    1
    19    28    29   ar
    20    29    30    2
    21    29    31   ar
    22    31    32   ar
    23    32    33   ar
    24    33    34   ar
    25    34    35   ar
    26    35    36   ar
    27    36    37    1
    28    36    38   ar
    29    38    39   ar
    30     4     5    1
    31     5     6    1
    32     4     7    1
    33     7     8    1
    34    19    20   ar
    35    20    21   ar
    36    21    22    1
    37    22    13   am
    38    21    16   ar
    39     6     1    1
    40     8     1    1
    41    38    25    1
    42    39    28   ar
    43    39    33   ar
    44     9    10    1
    45    26    40    1
    46    22    23    1
@<TRIPOS>MOLECULE
*****
 40 46 0 0 0
SMALL
GASTEIGER

@<TRIPOS>ATOM
      1 C         142.4717  138.5106  159.6236 C.3     1  UNL1        0.0700
      2 C         141.6568  139.7686  159.5667 C.3     1  UNL1        0.0193
      3 C         140.9569  140.2651  160.7971 C.3     1  UNL1        0.0287
      4 C         141.0719  139.5035  162.0843 C.3     1  UNL1        0.0955
      5 C         141.8868  138.2454  162.1411 C.3     1  UNL1        0.0287
      6 C         142.5866  137.7490  160.9107 C.3     1  UNL1        0.0193
      7 O         141.4734  139.1923  161.4363 O.3     1  UNL1       -0.3571
      8 C         142.1062  138.7434  160.3238 C.3     1  UNL1        0.1562
      9 N         143.1715  138.0140  158.3932 N.3     1  UNL1       -0.2926
     10 H         143.7682  138.7742  158.0669 H       1  UNL1        0.1236
     11 C         142.3725  137.5526  157.2107 C.3     1  UNL1        0.1152
     12 O         144.9496  130.2776  158.2991 O.2     1  UNL1       -0.2707
     13 C         144.0885  131.2527  157.5521 C.2     1  UNL1        0.2718
     14 C         143.2255  130.7777  156.4210 C.3     1  UNL1        0.2898
     15 O         142.3644  131.7526  155.6739 O.3     1  UNL1       -0.4628
     16 C         142.3664  133.2026  156.0581 C.ar    1  UNL1        0.1708
     17 C         141.5054  134.1776  155.3112 C.ar    1  UNL1        0.0411
     18 C         141.5074  135.6276  155.6954 C.ar    1  UNL1        0.0193
     19 C         142.3705  136.1025  156.8265 C.ar    1  UNL1        0.0765
     20 N         143.2316  135.1275  157.5735 N.ar    1  UNL1       -0.2304
     21 C         143.2295  133.6776  157.1893 C.ar    1  UNL1        0.1682
     22 N         144.0906  132.7026  157.9363 N.am    1  UNL1       -0.2639
     23 H         144.6570  133.0144  158.6787 H       1  UNL1        0.1565
     24 C         140.3721  140.0000  163.3146 C.3     1  UNL1        0.0603
     25 C         141.1602  140.6382  164.4198 C.3     1  UNL1        0.1322
     26 O         142.0356  141.1235  163.3026 O.3     1  UNL1       -0.3806
     27 C         142.1314  141.3779  165.2915 C.3     1  UNL1        0.1401
     28 N         141.6915  141.2163  166.7164 N.ar    1  UNL1       -0.2915
     29 C         142.2622  141.7252  168.0068 C.ar    1  UNL1        0.2611
     30 O         143.5052  142.5647  167.9978 O.2     1  UNL1       -0.2670
     31 C         141.5899  141.3945  169.3063 C.ar    1  UNL1        0.0623
     32 C         140.3469  140.5550  169.3153 C.ar    1  UNL1        0.0254
     33 C         139.7762  140.0461  168.0248 C.ar    1  UNL1        0.0971
     34 N         138.5640  139.1990  167.7360 N.ar    1  UNL1       -0.2415
     35 C         138.1120  138.7635  166.3737 C.ar    1  UNL1        0.1100
     36 C         138.8901  139.1738  165.1587 C.ar    1  UNL1        0.0764
     37 CL        138.4381  138.7383  163.7963 Cl      1  UNL1       -0.0808
     38 C         140.1202  140.0195  165.3060 C.ar    1  UNL1        0.0331
     39 C         140.4485  140.3768  166.7254 C.ar    1  UNL1        0.0792
     40 H         142.7635  141.6505  163.6677 H       1  UNL1        0.2108
@<TRIPOS>BOND
     1    12    13    2
     2    13    14    1
     3    14    15    1
     4    15    16    1
     5    16    17   ar
     6    17    18   ar
     7    18    19   ar
     8    19    11    1
     9    11     9    1
    10     9     1    1
    11     1     2    1
    12     2     3    1
    13     3     4    1
    14     4    24    1
    15    24    25    1
    16    25    26    1
    17    25    27    1
    18    27    28    1
    19    28    29   ar
    20    29    30    2
    21    29    31   ar
    22    31    32   ar
    23    32    33   ar
    24    33    34   ar
    25    34    35   ar
    26    35    36   ar
    27    36    37    1
    28    36    38   ar
    29    38    39   ar
    30     4     5    1
    31     5     6    1
    32     4     7    1
    33     7     8    1
    34    19    20   ar
    35    20    21   ar
    36    21    22    1
    37    22    13   am
    38    21    16   ar
    39     6     1    1
    40     8     1    1
    41    38    25    1
    42    39    28   ar
    43    39    33   ar
    44     9    10    1
    45    26    40    1
    46    22    23    1
@<TRIPOS>MOLECULE
*****
 40 46 0 0 0
SMALL
GASTEIGER

@<TRIPOS>ATOM
      1 C         144.2957  140.2235  157.5696 C.3     1  UNL1        0.0700
      2 C         144.8730  141.6048  157.4756 C.3     1  UNL1        0.0193
      3 C         144.6838  142.5751  158.6037 C.3     1  UNL1        0.0287
      4 C         143.9173  142.1642  159.8259 C.3     1  UNL1        0.0955
      5 C         143.3400  140.7829  159.9199 C.3     1  UNL1        0.0287
      6 C         143.5292  139.8126  158.7917 C.3     1  UNL1        0.0193
      7 O         143.9949  141.5977  159.2334 O.3     1  UNL1       -0.3571
      8 C         144.1659  140.7204  158.2133 C.3     1  UNL1        0.1562
      9 N         144.4848  139.2532  156.4414 N.3     1  UNL1       -0.2926
     10 H         145.0972  139.7062  155.7630 H       1  UNL1        0.1236
     11 C         143.2955  138.7465  155.6808 C.3     1  UNL1        0.1152
     12 O         144.9551  131.4414  157.8329 O.2     1  UNL1       -0.2707
     13 C         144.0211  132.4279  157.1968 C.2     1  UNL1        0.2718
     14 C         142.7064  131.9657  156.6420 C.3     1  UNL1        0.2898
     15 O         141.7723  132.9521  156.0058 O.3     1  UNL1       -0.4628
     16 C         142.1532  134.4007  155.9246 C.ar    1  UNL1        0.1708
     17 C         141.2192  135.3872  155.2885 C.ar    1  UNL1        0.0411
     18 C         141.6000  136.8357  155.2072 C.ar    1  UNL1        0.0193
     19 C         142.9148  137.2979  155.7621 C.ar    1  UNL1        0.0765
     20 N         143.8487  136.3114  156.3982 N.ar    1  UNL1       -0.2304
     21 C         143.4679  134.8628  156.4794 C.ar    1  UNL1        0.1682
     22 N         144.4019  133.8764  157.1155 N.am    1  UNL1       -0.2639
     23 H         145.2648  134.1798  157.4797 H       1  UNL1        0.1565
     24 C         143.7282  143.1345  160.9541 C.3     1  UNL1        0.0603
     25 C         142.3586  143.6569  161.2723 C.3     1  UNL1        0.1322
     26 O         142.3279  144.0137  159.8157 O.3     1  UNL1       -0.3806
     27 C         140.9826  144.2539  161.2861 C.3     1  UNL1        0.1401
     28 N         140.4491  144.1570  162.6846 N.ar    1  UNL1       -0.2915
     29 C         139.1458  144.5820  163.2935 C.ar    1  UNL1        0.2611
     30 O         138.0995  145.2390  162.4428 O.2     1  UNL1       -0.2670
     31 C         138.8889  144.3500  164.7529 C.ar    1  UNL1        0.0623
     32 C         139.9352  143.6931  165.6036 C.ar    1  UNL1        0.0254
     33 C         141.2385  143.2681  164.9948 C.ar    1  UNL1        0.0971
     34 N         142.4480  142.5990  165.5946 N.ar    1  UNL1       -0.2415
     35 C         143.6966  142.2300  164.8497 C.ar    1  UNL1        0.1100
     36 C         143.8103  142.5260  163.3836 C.ar    1  UNL1        0.0764
     37 CL        145.0589  142.1569  162.6386 Cl      1  UNL1       -0.0808
     38 C         142.6755  143.1910  162.6624 C.ar    1  UNL1        0.0331
     39 C         141.4955  143.5000  163.5353 C.ar    1  UNL1        0.0792
     40 H         141.4797  144.4337  159.6035 H       1  UNL1        0.2108
@<TRIPOS>BOND
     1    12    13    2
     2    13    14    1
     3    14    15    1
     4    15    16    1
     5    16    17   ar
     6    17    18   ar
     7    18    19   ar
     8    19    11    1
     9    11     9    1
    10     9     1    1
    11     1     2    1
    12     2     3    1
    13     3     4    1
    14     4    24    1
    15    24    25    1
    16    25    26    1
    17    25    27    1
    18    27    28    1
    19    28    29   ar
    20    29    30    2
    21    29    31   ar
    22    31    32   ar
    23    32    33   ar
    24    33    34   ar
    25    34    35   ar
    26    35    36   ar
    27    36    37    1
    28    36    38   ar
    29    38    39   ar
    30     4     5    1
    31     5     6    1
    32     4     7    1
    33     7     8    1
    34    19    20   ar
    35    20    21   ar
    36    21    22    1
    37    22    13   am
    38    21    16   ar
    39     6     1    1
    40     8     1    1
    41    38    25    1
    42    39    28   ar
    43    39    33   ar
    44     9    10    1
    45    26    40    1
    46    22    23    1
@<TRIPOS>MOLECULE
*****
 40 46 0 0 0
SMALL
GASTEIGER

@<TRIPOS>ATOM
      1 C         141.4130  139.1289  158.0564 C.3     1  UNL1        0.0700
      2 C         140.1302  138.3986  158.3227 C.3     1  UNL1        0.0193
      3 C         139.6769  138.1690  159.7340 C.3     1  UNL1        0.0287
      4 C         140.5065  138.6697  160.8791 C.3     1  UNL1        0.0955
      5 C         141.7894  139.4000  160.6129 C.3     1  UNL1        0.0287
      6 C         142.2426  139.6295  159.2015 C.3     1  UNL1        0.0193
      7 O         140.7958  138.8194  160.1229 O.3     1  UNL1       -0.3571
      8 C         141.2057  139.0270  158.8468 C.3     1  UNL1        0.1562
      9 N         141.8663  139.3585  156.6451 N.3     1  UNL1       -0.2926
     10 H         141.0358  139.3000  156.0559 H       1  UNL1        0.1236
     11 C         142.8964  138.4568  156.0322 C.3     1  UNL1        0.1152
     12 O         145.1875  131.2964  158.0893 O.2     1  UNL1       -0.2707
     13 C         144.2108  132.1985  157.3946 C.2     1  UNL1        0.2718
     14 C         143.0212  131.6157  156.6911 C.3     1  UNL1        0.2898
     15 O         142.0444  132.5176  155.9964 O.3     1  UNL1       -0.4628
     16 C         142.2574  134.0024  156.0054 C.ar    1  UNL1        0.1708
     17 C         141.2808  134.9044  155.3108 C.ar    1  UNL1        0.0411
     18 C         141.4938  136.3892  155.3197 C.ar    1  UNL1        0.0193
     19 C         142.6835  136.9720  156.0233 C.ar    1  UNL1        0.0765
     20 N         143.6601  136.0699  156.7179 N.ar    1  UNL1       -0.2304
     21 C         143.4471  134.5852  156.7090 C.ar    1  UNL1        0.1682
     22 N         144.4238  133.6832  157.4036 N.am    1  UNL1       -0.2639
     23 H         145.2046  134.0658  157.8654 H       1  UNL1        0.1565
     24 C         140.0532  138.4401  162.2905 C.3     1  UNL1        0.0603
     25 C         141.0646  138.2369  163.3794 C.3     1  UNL1        0.1322
     26 O         141.5856  137.1570  162.4780 O.3     1  UNL1       -0.3806
     27 C         142.1849  137.8080  164.2799 C.3     1  UNL1        0.1401
     28 N         142.1449  138.6652  165.5102 N.ar    1  UNL1       -0.2915
     29 C         143.0031  138.6967  166.7399 C.ar    1  UNL1        0.2611
     30 O         144.1482  137.7380  166.8801 O.2     1  UNL1       -0.2670
     31 C         142.7163  139.6869  167.8295 C.ar    1  UNL1        0.0623
     32 C         141.5712  140.6456  167.6893 C.ar    1  UNL1        0.0254
     33 C         140.7130  140.6141  166.4596 C.ar    1  UNL1        0.0971
     34 N         139.5199  141.4407  166.0550 N.ar    1  UNL1       -0.2415
     35 C         138.7527  141.2918  164.7747 C.ar    1  UNL1        0.1100
     36 C         139.1589  140.2510  163.7737 C.ar    1  UNL1        0.0764
     37 CL        138.3917  140.1021  162.4934 Cl      1  UNL1       -0.0808
     38 C         140.3322  139.3592  164.0531 C.ar    1  UNL1        0.0331
     39 C         140.9998  139.6239  165.3700 C.ar    1  UNL1        0.0792
     40 H         142.3513  136.7305  162.8936 H       1  UNL1        0.2108
@<TRIPOS>BOND
     1    12    13    2
     2    13    14    1
     3    14    15    1
     4    15    16    1
     5    16    17   ar
     6    17    18   ar
     7    18    19   ar
     8    19    11    1
     9    11     9    1
    10     9     1    1
    11     1     2    1
    12     2     3    1
    13     3     4    1
    14     4    24    1
    15    24    25    1
    16    25    26    1
    17    25    27    1
    18    27    28    1
    19    28    29   ar
    20    29    30    2
    21    29    31   ar
    22    31    32   ar
    23    32    33   ar
    24    33    34   ar
    25    34    35   ar
    26    35    36   ar
    27    36    37    1
    28    36    38   ar
    29    38    39   ar
    30     4     5    1
    31     5     6    1
    32     4     7    1
    33     7     8    1
    34    19    20   ar
    35    20    21   ar
    36    21    22    1
    37    22    13   am
    38    21    16   ar
    39     6     1    1
    40     8     1    1
    41    38    25    1
    42    39    28   ar
    43    39    33   ar
    44     9    10    1
    45    26    40    1
    46    22    23    1
@<TRIPOS>MOLECULE
*****
 40 46 0 0 0
SMALL
GASTEIGER

@<TRIPOS>ATOM
      1 C         142.2043  137.7597  157.9027 C.3     1  UNL1        0.0700
      2 C         142.5079  138.2539  159.2860 C.3     1  UNL1        0.0193
      3 C         141.4190  138.8576  160.1226 C.3     1  UNL1        0.0287
      4 C         140.0265  138.9672  159.5758 C.3     1  UNL1        0.0955
      5 C         139.7228  138.4730  158.1925 C.3     1  UNL1        0.0287
      6 C         140.8118  137.8692  157.3560 C.3     1  UNL1        0.0193
      7 O         140.5901  138.6289  159.0800 O.3     1  UNL1       -0.3571
      8 C         141.5747  138.0830  158.3236 C.3     1  UNL1        0.1562
      9 N         143.2932  137.1560  157.0661 N.3     1  UNL1       -0.2926
     10 H         143.8822  137.9260  156.7491 H       1  UNL1        0.1236
     11 C         142.9449  136.3485  155.8510 C.3     1  UNL1        0.1152
     12 O         145.2332  129.5328  158.8611 O.2     1  UNL1       -0.2707
     13 C         144.3211  130.3160  157.9640 C.2     1  UNL1        0.2718
     14 C         143.2597  129.6103  157.1732 C.3     1  UNL1        0.2898
     15 O         142.3476  130.3934  156.2760 O.3     1  UNL1       -0.4628
     16 C         142.4969  131.8822  156.1698 C.ar    1  UNL1        0.1708
     17 C         141.5848  132.6653  155.2727 C.ar    1  UNL1        0.0411
     18 C         141.7342  134.1541  155.1664 C.ar    1  UNL1        0.0193
     19 C         142.7956  134.8597  155.9573 C.ar    1  UNL1        0.0765
     20 N         143.7077  134.0765  156.8544 N.ar    1  UNL1       -0.2304
     21 C         143.5583  132.5878  156.9606 C.ar    1  UNL1        0.1682
     22 N         144.4704  131.8047  157.8577 N.am    1  UNL1       -0.2639
     23 H         145.1671  132.2679  158.3768 H       1  UNL1        0.1565
     24 C         138.9376  139.5709  160.4124 C.3     1  UNL1        0.0603
     25 C         138.9390  141.0438  160.6961 C.3     1  UNL1        0.1322
     26 O         139.1458  141.1691  159.2158 O.3     1  UNL1       -0.3806
     27 C         138.9837  142.5429  160.6704 C.3     1  UNL1        0.1401
     28 N         138.8043  143.0362  162.0756 N.ar    1  UNL1       -0.2915
     29 C         138.7625  144.4186  162.6564 C.ar    1  UNL1        0.2611
     30 O         138.9181  145.6128  161.7622 O.2     1  UNL1       -0.2670
     31 C         138.5650  144.6066  164.1314 C.ar    1  UNL1        0.0623
     32 C         138.4095  143.4124  165.0255 C.ar    1  UNL1        0.0254
     33 C         138.4513  142.0300  164.4447 C.ar    1  UNL1        0.0971
     34 N         138.3256  140.6737  165.0889 N.ar    1  UNL1       -0.2415
     35 C         138.3885  139.3596  164.3683 C.ar    1  UNL1        0.1100
     36 C         138.5917  139.3281  162.8824 C.ar    1  UNL1        0.0764
     37 CL        138.6546  138.0141  162.1618 Cl      1  UNL1       -0.0808
     38 C         138.7320  140.6106  162.1172 C.ar    1  UNL1        0.0331
     39 C         138.6487  141.8420  162.9698 C.ar    1  UNL1        0.0792
     40 H         139.2045  142.1071  158.9758 H       1  UNL1        0.2108
@<TRIPOS>BOND
     1    12    13    2
     2    13    14    1
     3    14    15    1
     4    15    16    1
     5    16    17   ar
     6    17    18   ar
     7    18    19   ar
     8    19    11    1
     9    11     9    1
    10     9     1    1
    11     1     2    1
    12     2     3    1
    13     3     4    1
    14     4    24    1
    15    24    25    1
    16    25    26    1
    17    25    27    1
    18    27    28    1
    19    28    29   ar
    20    29    30    2
    21    29    31   ar
    22    31    32   ar
    23    32    33   ar
    24    33    34   ar
    25    34    35   ar
    26    35    36   ar
    27    36    37    1
    28    36    38   ar
    29    38    39   ar
    30     4     5    1
    31     5     6    1
    32     4     7    1
    33     7     8    1
    34    19    20   ar
    35    20    21   ar
    36    21    22    1
    37    22    13   am
    38    21    16   ar
    39     6     1    1
    40     8     1    1
    41    38    25    1
    42    39    28   ar
    43    39    33   ar
    44     9    10    1
    45    26    40    1
    46    22    23    1
@<TRIPOS>MOLECULE
*****
 40 46 0 0 0
SMALL
GASTEIGER

@<TRIPOS>ATOM
      1 C         138.7333  141.9192  163.7276 C.3     1  UNL1        0.0700
      2 C         139.5375  143.0718  164.2519 C.3     1  UNL1        0.0193
      3 C         140.4338  143.8426  163.3284 C.3     1  UNL1        0.0287
      4 C         140.5258  143.4607  161.8807 C.3     1  UNL1        0.0955
      5 C         139.7216  142.3081  161.3565 C.3     1  UNL1        0.0287
      6 C         138.8254  141.5374  162.2800 C.3     1  UNL1        0.0193
      7 O         140.0209  143.0086  162.3484 O.3     1  UNL1       -0.3571
      8 C         139.2106  142.3117  163.1833 C.3     1  UNL1        0.1562
      9 N         137.8371  141.1485  164.6510 N.3     1  UNL1       -0.2926
     10 H         137.5940  141.7762  165.4174 H       1  UNL1        0.1236
     11 C         138.3207  139.8723  165.2734 C.3     1  UNL1        0.1152
     12 O         141.6166  141.9714  172.0175 O.2     1  UNL1       -0.2707
     13 C         141.7056  141.2870  170.6856 C.2     1  UNL1        0.2718
     14 C         142.9821  140.6180  170.2700 C.3     1  UNL1        0.2898
     15 O         143.0711  139.9336  168.9382 O.3     1  UNL1       -0.4628
     16 C         141.8835  139.9183  168.0220 C.ar    1  UNL1        0.1708
     17 C         141.9725  139.2339  166.6902 C.ar    1  UNL1        0.0411
     18 C         140.7848  139.2186  165.7740 C.ar    1  UNL1        0.0193
     19 C         139.5083  139.8877  166.1897 C.ar    1  UNL1        0.0765
     20 N         139.4194  140.5720  167.5215 N.ar    1  UNL1       -0.2304
     21 C         140.6070  140.5873  168.4376 C.ar    1  UNL1        0.1682
     22 N         140.5179  141.2717  169.7694 N.am    1  UNL1       -0.2639
     23 H         139.6801  141.7108  170.0422 H       1  UNL1        0.1565
     24 C         141.4221  144.2314  160.9573 C.3     1  UNL1        0.0603
     25 C         140.8413  144.9528  159.7773 C.3     1  UNL1        0.1322
     26 O         139.9076  145.5390  160.7945 O.3     1  UNL1       -0.3806
     27 C         140.0653  145.7967  158.8100 C.3     1  UNL1        0.1401
     28 N         140.6408  145.5813  157.4416 N.ar    1  UNL1       -0.2915
     29 C         140.2805  146.1485  156.1006 C.ar    1  UNL1        0.2611
     30 O         139.1489  147.1255  155.9790 O.2     1  UNL1       -0.2670
     31 C         141.0519  145.7388  154.8812 C.ar    1  UNL1        0.0623
     32 C         142.1836  144.7618  155.0028 C.ar    1  UNL1        0.0254
     33 C         142.5438  144.1945  156.3438 C.ar    1  UNL1        0.0971
     34 N         143.6108  143.2144  156.7579 N.ar    1  UNL1       -0.2415
     35 C         143.8542  142.7339  158.1578 C.ar    1  UNL1        0.1100
     36 C         142.9970  143.2346  159.2823 C.ar    1  UNL1        0.0764
     37 CL        143.2404  142.7542  160.6822 Cl      1  UNL1       -0.0808
     38 C         141.8963  144.2158  159.0068 C.ar    1  UNL1        0.0331
     39 C         141.7724  144.6042  157.5632 C.ar    1  UNL1        0.0792
     40 H         139.2905  146.1451  160.3556 H       1  UNL1        0.2108
@<TRIPOS>BOND
     1    12    13    2
     2    13    14    1
     3    14    15    1
     4    15    16    1
     5    16    17   ar
     6    17    18   ar
     7    18    19   ar
     8    19    11    1
     9    11     9    1
    10     9     1    1
    11     1     2    1
    12     2     3    1
    13     3     4    1
    14     4    24    1
    15    24    25    1
    16    25    26    1
    17    25    27    1
    18    27    28    1
    19    28    29   ar
    20    29    30    2
    21    29    31   ar
    22    31    32   ar
    23    32    33   ar
    24    33    34   ar
    25    34    35   ar
    26    35    36   ar
    27    36    37    1
    28    36    38   ar
    29    38    39   ar
    30     4     5    1
    31     5     6    1
    32     4     7    1
    33     7     8    1
    34    19    20   ar
    35    20    21   ar
    36    21    22    1
    37    22    13   am
    38    21    16   ar
    39     6     1    1
    40     8     1    1
    41    38    25    1
    42    39    28   ar
    43    39    33   ar
    44     9    10    1
    45    26    40    1
    46    22    23    1
@<TRIPOS>MOLECULE
*****
 40 46 0 0 0
SMALL
GASTEIGER

@<TRIPOS>ATOM
      1 C         144.4530  142.6864  161.7211 C.3     1  UNL1        0.0700
      2 C         143.4866  143.6150  162.3947 C.3     1  UNL1        0.0193
      3 C         142.3229  144.1711  161.6288 C.3     1  UNL1        0.0287
      4 C         142.1257  143.7986  160.1892 C.3     1  UNL1        0.0955
      5 C         143.0921  142.8701  159.5155 C.3     1  UNL1        0.0287
      6 C         144.2557  142.3139  160.2815 C.3     1  UNL1        0.0193
      7 O         142.7782  143.4687  160.5678 O.3     1  UNL1       -0.3571
      8 C         143.8303  142.9658  161.2603 C.3     1  UNL1        0.1562
      9 N         145.6167  142.1302  162.4870 N.3     1  UNL1       -0.2926
     10 H         146.3238  141.8691  161.7998 H       1  UNL1        0.1236
     11 C         145.4256  140.9434  163.3841 C.3     1  UNL1        0.1152
     12 O         138.2172  138.7454  165.3736 O.2     1  UNL1       -0.2707
     13 C         139.4377  138.5752  164.5182 C.2     1  UNL1        0.2718
     14 C         139.4757  137.5023  163.4708 C.3     1  UNL1        0.2898
     15 O         140.6961  137.3321  162.6154 O.3     1  UNL1       -0.4628
     16 C         141.8785  138.2349  162.8076 C.ar    1  UNL1        0.1708
     17 C         143.0989  138.0648  161.9523 C.ar    1  UNL1        0.0411
     18 C         144.2813  138.9676  162.1445 C.ar    1  UNL1        0.0193
     19 C         144.2432  140.0406  163.1920 C.ar    1  UNL1        0.0765
     20 N         143.0228  140.2107  164.0473 N.ar    1  UNL1       -0.2304
     21 C         141.8404  139.3079  163.8551 C.ar    1  UNL1        0.1682
     22 N         140.6200  139.4781  164.7104 N.am    1  UNL1       -0.2639
     23 H         140.5950  140.1823  165.3979 H       1  UNL1        0.1565
     24 C         140.9620  144.3548  159.4233 C.3     1  UNL1        0.0603
     25 C         139.8661  143.4428  158.9573 C.3     1  UNL1        0.1322
     26 O         139.9815  142.8585  160.3339 O.3     1  UNL1       -0.3806
     27 C         138.7943  142.4087  158.7791 C.3     1  UNL1        0.1401
     28 N         138.2455  142.5445  157.3897 N.ar    1  UNL1       -0.2915
     29 C         137.1733  141.7945  156.6563 C.ar    1  UNL1        0.2611
     30 O         136.4406  140.6764  157.3368 O.2     1  UNL1       -0.2670
     31 C         136.8338  142.1626  155.2424 C.ar    1  UNL1        0.0623
     32 C         137.5664  143.2808  154.5619 C.ar    1  UNL1        0.0254
     33 C         138.6386  144.0307  155.2953 C.ar    1  UNL1        0.0971
     34 N         139.5222  145.1755  154.8721 N.ar    1  UNL1       -0.2415
     35 C         140.5648  145.8317  155.7279 C.ar    1  UNL1        0.1100
     36 C         140.7935  145.3528  157.1309 C.ar    1  UNL1        0.0764
     37 CL        141.8361  146.0090  157.9867 Cl      1  UNL1       -0.0808
     38 C         139.9797  144.2177  157.6780 C.ar    1  UNL1        0.0331
     39 C         138.9781  143.6626  156.7092 C.ar    1  UNL1        0.0792
     40 H         139.3420  142.1360  160.4332 H       1  UNL1        0.2108
@<TRIPOS>BOND
     1    12    13    2
     2    13    14    1
     3    14    15    1
     4    15    16    1
     5    16    17   ar
     6    17    18   ar
     7    18    19   ar
     8    19    11    1
     9    11     9    1
    10     9     1    1
    11     1     2    1
    12     2     3    1
    13     3     4    1
    14     4    24    1
    15    24    25    1
    16    25    26    1
    17    25    27    1
    18    27    28    1
    19    28    29   ar
    20    29    30    2
    21    29    31   ar
    22    31    32   ar
    23    32    33   ar
    24    33    34   ar
    25    34    35   ar
    26    35    36   ar
    27    36    37    1
    28    36    38   ar
    29    38    39   ar
    30     4     5    1
    31     5     6    1
    32     4     7    1
    33     7     8    1
    34    19    20   ar
    35    20    21   ar
    36    21    22    1
    37    22    13   am
    38    21    16   ar
    39     6     1    1
    40     8     1    1
    41    38    25    1
    42    39    28   ar
    43    39    33   ar
    44     9    10    1
    45    26    40    1
    46    22    23    1
