@<TRIPOS>MOLECULE
*****
 34 37 0 0 0
SMALL
GASTEIGER

@<TRIPOS>ATOM
      1 C         139.5139  142.1059  163.6824 C.2     1  UNL1        0.1397
      2 C         139.5921  142.0728  162.1848 C.2     1  UNL1        0.1355
      3 N         140.4831  141.0779  161.5020 N.pl3   1  UNL1       -0.1998
      4 C         141.2959  140.1159  162.3168 C.2     1  UNL1        0.3442
      5 N         141.2178  140.1490  163.8144 N.2     1  UNL1       -0.0580
      6 C         140.3268  141.1439  164.4972 C.3     1  UNL1        0.2695
      7 H         140.5343  141.0562  160.5191 H       1  UNL1        0.2983
      8 C         140.2486  141.1769  165.9948 C.ar    1  UNL1        0.0415
      9 C         141.0093  142.2170  166.7628 C.ar    1  UNL1        0.0034
     10 C         140.9312  142.2500  168.2603 C.ar    1  UNL1        0.0295
     11 C         140.0924  141.2430  168.9901 C.ar    1  UNL1        0.1410
     12 F         140.0144  141.2760  170.4876 F       1  UNL1       -0.2041
     13 C         139.3318  140.2029  168.2221 C.ar    1  UNL1        0.0408
     14 C         139.4099  140.1699  166.7245 C.ar    1  UNL1        0.0603
     15 CL        138.6493  139.1298  165.9565 Cl      1  UNL1       -0.0824
     16 C         142.1869  139.1210  161.6341 C.ar    1  UNL1        0.1931
     17 N         141.9033  138.4306  160.3329 N.ar    1  UNL1       -0.2297
     18 C         143.0590  137.5246  160.0272 C.ar    1  UNL1        0.1067
     19 C         144.0570  137.6551  161.1395 C.ar    1  UNL1        0.0577
     20 S         143.5180  138.6417  162.1325 S.2     1  UNL1       -0.0586
     21 C         138.6229  143.1008  164.3652 C.2     1  UNL1        0.3448
     22 O         137.1908  142.7554  164.6474 O.2     1  UNL1       -0.2450
     23 C         138.5729  145.1693  165.9364 C.3     1  UNL1        0.2559
     24 O         139.1641  144.4412  164.7657 O.3     1  UNL1       -0.4414
     25 C         138.7792  143.0348  161.3699 C.3     1  UNL1        0.1407
     26 N         139.3311  143.5850  160.0883 N.3     1  UNL1       -0.2584
     27 C         139.0108  142.9151  158.7850 C.3     1  UNL1        0.1052
     28 C         139.5627  143.4654  157.5033 C.3     1  UNL1        0.1595
     29 O         140.4349  144.6855  157.5250 O.3     1  UNL1       -0.3505
     30 C         140.7553  145.3554  158.8283 C.3     1  UNL1        0.1637
     31 C         140.2034  144.8052  160.1099 C.3     1  UNL1        0.1247
     32 C         140.5237  145.4751  161.4133 C.2     1  UNL1        0.0673
     33 O         139.7611  146.6955  161.8366 O.co2   1  UNL1       -0.5477
     34 O         141.6066  144.9246  162.2932 O.co2   1  UNL1       -0.5477
@<TRIPOS>UNITY_ATOM_ATTR
33 1
charge -1
@<TRIPOS>BOND
     1    23    24    1
     2    24    21    1
     3    21    22    2
     4    21     1    1
     5     1     2    2
     6     2    25    1
     7    25    26    1
     8    26    27    1
     9    27    28    1
    10    28    29    1
    11    29    30    1
    12    30    31    1
    13    31    32    1
    14    32    33   ar
    15    32    34   ar
    16     2     3    1
    17     3     4    1
    18     4    16    1
    19    16    17   ar
    20    17    18   ar
    21    18    19   ar
    22    19    20   ar
    23     4     5    2
    24     5     6    1
    25     6     8    1
    26     8     9   ar
    27     9    10   ar
    28    10    11   ar
    29    11    12    1
    30    11    13   ar
    31    13    14   ar
    32    14    15    1
    33     6     1    1
    34    14     8   ar
    35    31    26    1
    36    20    16   ar
    37     3     7    1
@<TRIPOS>MOLECULE
*****
 34 37 0 0 0
SMALL
GASTEIGER

@<TRIPOS>ATOM
      1 C         139.1349  141.3542  160.7996 C.2     1  UNL1        0.1397
      2 C         139.2341  140.7546  159.4283 C.2     1  UNL1        0.1355
      3 N         139.3253  141.6454  158.2250 N.pl3   1  UNL1       -0.1998
      4 C         139.3173  143.1359  158.3929 C.2     1  UNL1        0.3442
      5 N         139.2182  143.7356  159.7642 N.2     1  UNL1       -0.0580
      6 C         139.1270  142.8447  160.9676 C.3     1  UNL1        0.2695
      7 H         139.3904  141.2518  157.3249 H       1  UNL1        0.2983
      8 C         139.0278  143.4445  162.3390 C.ar    1  UNL1        0.0415
      9 C         137.6865  143.6117  162.9892 C.ar    1  UNL1        0.0034
     10 C         137.5873  144.2115  164.3605 C.ar    1  UNL1        0.0295
     11 C         138.8295  144.6439  165.0816 C.ar    1  UNL1        0.1410
     12 F         138.7303  145.2437  166.4529 F       1  UNL1       -0.2041
     13 C         140.1708  144.4767  164.4314 C.ar    1  UNL1        0.0408
     14 C         140.2700  143.8769  163.0600 C.ar    1  UNL1        0.0603
     15 CL        141.6113  143.7097  162.4098 Cl      1  UNL1       -0.0824
     16 C         139.4086  144.0268  157.1896 C.ar    1  UNL1        0.1931
     17 N         140.0119  145.3996  157.1525 N.ar    1  UNL1       -0.2297
     18 C         139.8887  145.9225  155.7520 C.ar    1  UNL1        0.1067
     19 C         139.2092  144.8728  154.9235 C.ar    1  UNL1        0.0577
     20 S         138.9125  143.7012  155.8119 S.2     1  UNL1       -0.0586
     21 C         139.0437  140.4634  162.0030 C.2     1  UNL1        0.3448
     22 O         137.7164  139.9063  162.4248 O.2     1  UNL1       -0.2450
     23 C         140.3178  140.3671  164.2651 C.3     1  UNL1        0.2559
     24 O         140.2797  140.1296  162.7845 O.3     1  UNL1       -0.4414
     25 C         139.2420  139.2640  159.2603 C.3     1  UNL1        0.1407
     26 N         140.5041  138.5615  158.8561 N.3     1  UNL1       -0.2584
     27 C         141.6224  138.4013  159.8430 C.3     1  UNL1        0.1052
     28 C         142.8846  137.6988  159.4387 C.3     1  UNL1        0.1595
     29 O         143.0285  137.1565  158.0476 O.3     1  UNL1       -0.3505
     30 C         141.9103  137.3166  157.0608 C.3     1  UNL1        0.1637
     31 C         140.6481  138.0191  157.4650 C.3     1  UNL1        0.1247
     32 C         139.5299  138.1793  156.4781 C.2     1  UNL1        0.0673
     33 O         139.2448  139.5249  155.8795 O.co2   1  UNL1       -0.5477
     34 O         138.6967  136.9940  156.0898 O.co2   1  UNL1       -0.5477
@<TRIPOS>UNITY_ATOM_ATTR
33 1
charge -1
@<TRIPOS>BOND
     1    23    24    1
     2    24    21    1
     3    21    22    2
     4    21     1    1
     5     1     2    2
     6     2    25    1
     7    25    26    1
     8    26    27    1
     9    27    28    1
    10    28    29    1
    11    29    30    1
    12    30    31    1
    13    31    32    1
    14    32    33   ar
    15    32    34   ar
    16     2     3    1
    17     3     4    1
    18     4    16    1
    19    16    17   ar
    20    17    18   ar
    21    18    19   ar
    22    19    20   ar
    23     4     5    2
    24     5     6    1
    25     6     8    1
    26     8     9   ar
    27     9    10   ar
    28    10    11   ar
    29    11    12    1
    30    11    13   ar
    31    13    14   ar
    32    14    15    1
    33     6     1    1
    34    14     8   ar
    35    31    26    1
    36    20    16   ar
    37     3     7    1
@<TRIPOS>MOLECULE
*****
 34 37 0 0 0
SMALL
GASTEIGER

@<TRIPOS>ATOM
      1 C         140.7815  139.7308  164.2256 C.2     1  UNL1        0.1397
      2 C         140.7505  139.8424  162.7302 C.2     1  UNL1        0.1355
      3 N         140.5768  141.1837  162.0815 N.pl3   1  UNL1       -0.1998
      4 C         140.4340  142.4134  162.9284 C.2     1  UNL1        0.3442
      5 N         140.4649  142.3019  164.4239 N.2     1  UNL1       -0.0580
      6 C         140.6387  140.9606  165.0725 C.3     1  UNL1        0.2695
      7 H         140.5564  141.2569  161.1000 H       1  UNL1        0.2983
      8 C         140.6696  140.8491  166.5681 C.ar    1  UNL1        0.0415
      9 C         139.4796  140.3095  167.3047 C.ar    1  UNL1        0.0034
     10 C         139.5105  140.1980  168.8002 C.ar    1  UNL1        0.0295
     11 C         140.7315  140.6261  169.5592 C.ar    1  UNL1        0.1410
     12 F         140.7624  140.5146  171.0547 F       1  UNL1       -0.2041
     13 C         141.9216  141.1657  168.8226 C.ar    1  UNL1        0.0408
     14 C         141.8906  141.2772  167.3270 C.ar    1  UNL1        0.0603
     15 CL        143.0806  141.8168  166.5903 Cl      1  UNL1       -0.0824
     16 C         140.2602  143.7547  162.2798 C.ar    1  UNL1        0.1931
     17 N         140.7468  144.1440  160.9153 N.ar    1  UNL1       -0.2297
     18 C         140.3567  145.5721  160.6739 C.ar    1  UNL1        0.1067
     19 C         139.6290  146.0656  161.8893 C.ar    1  UNL1        0.0577
     20 S         139.5694  144.9424  162.8817 S.2     1  UNL1       -0.0586
     21 C         140.9552  138.3895  164.8743 C.2     1  UNL1        0.3448
     22 O         139.7698  137.4912  165.0687 O.2     1  UNL1       -0.2450
     23 C         143.5356  138.6920  164.8781 C.3     1  UNL1        0.2559
     24 O         142.3144  137.9465  165.3285 O.3     1  UNL1       -0.4414
     25 C         140.8933  138.6126  161.8832 C.3     1  UNL1        0.1407
     26 N         141.1792  138.7411  160.4163 N.3     1  UNL1       -0.2584
     27 C         140.0497  138.7406  159.4292 C.3     1  UNL1        0.1052
     28 C         140.3357  138.8692  157.9623 C.3     1  UNL1        0.1595
     29 O         141.7510  138.9983  157.4826 O.3     1  UNL1       -0.3505
     30 C         142.8804  138.9989  158.4697 C.3     1  UNL1        0.1637
     31 C         142.5945  138.8703  159.9365 C.3     1  UNL1        0.1247
     32 C         143.7240  138.8708  160.9237 C.2     1  UNL1        0.0673
     33 O         144.2751  137.5721  161.4335 O.co2   1  UNL1       -0.5477
     34 O         144.3023  140.1699  161.4009 O.co2   1  UNL1       -0.5477
@<TRIPOS>UNITY_ATOM_ATTR
33 1
charge -1
@<TRIPOS>BOND
     1    23    24    1
     2    24    21    1
     3    21    22    2
     4    21     1    1
     5     1     2    2
     6     2    25    1
     7    25    26    1
     8    26    27    1
     9    27    28    1
    10    28    29    1
    11    29    30    1
    12    30    31    1
    13    31    32    1
    14    32    33   ar
    15    32    34   ar
    16     2     3    1
    17     3     4    1
    18     4    16    1
    19    16    17   ar
    20    17    18   ar
    21    18    19   ar
    22    19    20   ar
    23     4     5    2
    24     5     6    1
    25     6     8    1
    26     8     9   ar
    27     9    10   ar
    28    10    11   ar
    29    11    12    1
    30    11    13   ar
    31    13    14   ar
    32    14    15    1
    33     6     1    1
    34    14     8   ar
    35    31    26    1
    36    20    16   ar
    37     3     7    1
@<TRIPOS>MOLECULE
*****
 34 37 0 0 0
SMALL
GASTEIGER

@<TRIPOS>ATOM
      1 C         140.9885  140.4244  164.7464 C.2     1  UNL1        0.1397
      2 C         140.7126  140.2985  163.2774 C.2     1  UNL1        0.1355
      3 N         140.4899  141.5283  162.4480 N.pl3   1  UNL1       -0.1998
      4 C         140.5429  142.8841  163.0876 C.2     1  UNL1        0.3442
      5 N         140.8188  143.0099  164.5566 N.2     1  UNL1       -0.0580
      6 C         141.0416  141.7801  165.3860 C.3     1  UNL1        0.2695
      7 H         140.3088  141.4457  161.4838 H       1  UNL1        0.2983
      8 C         141.3174  141.9061  166.8551 C.ar    1  UNL1        0.0415
      9 C         140.2191  141.6646  167.8478 C.ar    1  UNL1        0.0034
     10 C         140.4949  141.7905  169.3168 C.ar    1  UNL1        0.0295
     11 C         141.8691  142.1579  169.7932 C.ar    1  UNL1        0.1410
     12 F         142.1449  142.2839  171.2622 F       1  UNL1       -0.2041
     13 C         142.9673  142.3994  168.8005 C.ar    1  UNL1        0.0408
     14 C         142.6915  142.2735  167.3314 C.ar    1  UNL1        0.0603
     15 CL        143.7898  142.5149  166.3387 Cl      1  UNL1       -0.0824
     16 C         140.3202  144.1139  162.2582 C.ar    1  UNL1        0.1931
     17 N         139.6709  145.3842  162.7216 N.ar    1  UNL1       -0.2297
     18 C         139.6570  146.3448  161.5696 C.ar    1  UNL1        0.1067
     19 C         140.2977  145.6681  160.3942 C.ar    1  UNL1        0.0577
     20 S         140.7075  144.2894  160.8198 S.2     1  UNL1       -0.0586
     21 C         141.2113  139.1946  165.5758 C.2     1  UNL1        0.3448
     22 O         140.0423  138.3615  166.0110 O.2     1  UNL1       -0.2450
     23 C         143.7529  139.0808  165.0492 C.3     1  UNL1        0.2559
     24 O         142.6030  138.7977  165.9699 O.3     1  UNL1       -0.4414
     25 C         140.6596  138.9427  162.6377 C.3     1  UNL1        0.1407
     26 N         140.7011  138.8162  161.1436 N.3     1  UNL1       -0.2584
     27 C         142.0026  138.5429  160.4499 C.3     1  UNL1        0.1052
     28 C         142.0441  138.4165  158.9558 C.3     1  UNL1        0.1595
     29 O         140.7840  138.5632  158.1555 O.3     1  UNL1       -0.3505
     30 C         139.4824  138.8365  158.8492 C.3     1  UNL1        0.1637
     31 C         139.4409  138.9630  160.3432 C.3     1  UNL1        0.1247
     32 C         138.1394  139.2363  161.0369 C.2     1  UNL1        0.0673
     33 O         137.3186  138.0982  161.5670 O.co2   1  UNL1       -0.5477
     34 O         137.6586  140.6477  161.2005 O.co2   1  UNL1       -0.5477
@<TRIPOS>UNITY_ATOM_ATTR
33 1
charge -1
@<TRIPOS>BOND
     1    23    24    1
     2    24    21    1
     3    21    22    2
     4    21     1    1
     5     1     2    2
     6     2    25    1
     7    25    26    1
     8    26    27    1
     9    27    28    1
    10    28    29    1
    11    29    30    1
    12    30    31    1
    13    31    32    1
    14    32    33   ar
    15    32    34   ar
    16     2     3    1
    17     3     4    1
    18     4    16    1
    19    16    17   ar
    20    17    18   ar
    21    18    19   ar
    22    19    20   ar
    23     4     5    2
    24     5     6    1
    25     6     8    1
    26     8     9   ar
    27     9    10   ar
    28    10    11   ar
    29    11    12    1
    30    11    13   ar
    31    13    14   ar
    32    14    15    1
    33     6     1    1
    34    14     8   ar
    35    31    26    1
    36    20    16   ar
    37     3     7    1
@<TRIPOS>MOLECULE
*****
 34 37 0 0 0
SMALL
GASTEIGER

@<TRIPOS>ATOM
      1 C         142.9425  140.3308  159.5405 C.2     1  UNL1        0.1397
      2 C         143.3034  139.3417  158.4722 C.2     1  UNL1        0.1355
      3 N         144.2904  139.7157  157.4064 N.pl3   1  UNL1       -0.1998
      4 C         144.9165  141.0787  157.4089 C.2     1  UNL1        0.3442
      5 N         144.5556  142.0678  158.4773 N.2     1  UNL1       -0.0580
      6 C         143.5686  141.6939  159.5431 C.3     1  UNL1        0.2695
      7 H         144.5273  139.0665  156.7052 H       1  UNL1        0.2983
      8 C         143.2077  142.6830  160.6115 C.ar    1  UNL1        0.0415
      9 C         142.0310  143.5941  160.4235 C.ar    1  UNL1        0.0034
     10 C         141.6701  144.5832  161.4918 C.ar    1  UNL1        0.0295
     11 C         142.4859  144.6613  162.7482 C.ar    1  UNL1        0.1410
     12 F         142.1250  145.6504  163.8165 F       1  UNL1       -0.2041
     13 C         143.6626  143.7503  162.9362 C.ar    1  UNL1        0.0408
     14 C         144.0235  142.7611  161.8678 C.ar    1  UNL1        0.0603
     15 CL        145.2002  141.8500  162.0558 Cl      1  UNL1       -0.0824
     16 C         145.9036  141.4527  156.3431 C.ar    1  UNL1        0.1931
     17 N         147.0428  142.4166  156.4954 N.ar    1  UNL1       -0.2297
     18 C         147.7680  142.4880  155.1843 C.ar    1  UNL1        0.1067
     19 C         147.0770  141.5683  154.2217 C.ar    1  UNL1        0.0577
     20 S         145.9248  140.9284  154.9379 S.2     1  UNL1       -0.0586
     21 C         141.9554  139.9569  160.6063 C.2     1  UNL1        0.3448
     22 O         140.4838  140.0624  160.3360 O.2     1  UNL1       -0.2450
     23 C         143.6372  138.5776  162.0273 C.3     1  UNL1        0.2559
     24 O         142.4400  139.4773  161.9424 O.3     1  UNL1       -0.4414
     25 C         142.6772  137.9786  158.4696 C.3     1  UNL1        0.1407
     26 N         141.7300  137.5905  157.3732 N.3     1  UNL1       -0.2584
     27 C         140.3034  138.0518  157.4163 C.3     1  UNL1        0.1052
     28 C         139.3562  137.6636  156.3198 C.3     1  UNL1        0.1595
     29 O         139.8356  136.8142  155.1803 O.3     1  UNL1       -0.3505
     30 C         141.2622  136.3528  155.1372 C.3     1  UNL1        0.1637
     31 C         142.2094  136.7410  156.2336 C.3     1  UNL1        0.1247
     32 C         143.6361  136.2796  156.1905 C.2     1  UNL1        0.0673
     33 O         143.9882  134.8890  156.6290 O.co2   1  UNL1       -0.5477
     34 O         144.7106  137.2088  155.7090 O.co2   1  UNL1       -0.5477
@<TRIPOS>UNITY_ATOM_ATTR
33 1
charge -1
@<TRIPOS>BOND
     1    23    24    1
     2    24    21    1
     3    21    22    2
     4    21     1    1
     5     1     2    2
     6     2    25    1
     7    25    26    1
     8    26    27    1
     9    27    28    1
    10    28    29    1
    11    29    30    1
    12    30    31    1
    13    31    32    1
    14    32    33   ar
    15    32    34   ar
    16     2     3    1
    17     3     4    1
    18     4    16    1
    19    16    17   ar
    20    17    18   ar
    21    18    19   ar
    22    19    20   ar
    23     4     5    2
    24     5     6    1
    25     6     8    1
    26     8     9   ar
    27     9    10   ar
    28    10    11   ar
    29    11    12    1
    30    11    13   ar
    31    13    14   ar
    32    14    15    1
    33     6     1    1
    34    14     8   ar
    35    31    26    1
    36    20    16   ar
    37     3     7    1
@<TRIPOS>MOLECULE
*****
 34 37 0 0 0
SMALL
GASTEIGER

@<TRIPOS>ATOM
      1 C         141.2932  139.6618  164.2071 C.2     1  UNL1        0.1397
      2 C         141.4922  139.8394  162.7310 C.2     1  UNL1        0.1355
      3 N         141.2480  141.1767  162.0969 N.pl3   1  UNL1       -0.1998
      4 C         140.8046  142.3362  162.9388 C.2     1  UNL1        0.3442
      5 N         140.6056  142.1586  164.4148 N.2     1  UNL1       -0.0580
      6 C         140.8499  140.8213  165.0490 C.3     1  UNL1        0.2695
      7 H         141.3786  141.2933  161.1281 H       1  UNL1        0.2983
      8 C         140.6508  140.6437  166.5251 C.ar    1  UNL1        0.0415
      9 C         141.7352  141.0429  167.4815 C.ar    1  UNL1        0.0034
     10 C         141.5362  140.8653  168.9576 C.ar    1  UNL1        0.0295
     11 C         140.2527  140.2885  169.4773 C.ar    1  UNL1        0.1410
     12 F         140.0537  140.1109  170.9534 F       1  UNL1       -0.2041
     13 C         139.1683  139.8893  168.5209 C.ar    1  UNL1        0.0408
     14 C         139.3674  140.0669  167.0448 C.ar    1  UNL1        0.0603
     15 CL        138.2830  139.6677  166.0884 Cl      1  UNL1       -0.0824
     16 C         140.5603  143.6735  162.3046 C.ar    1  UNL1        0.1931
     17 N         139.8987  144.8510  162.9570 N.ar    1  UNL1       -0.2297
     18 C         139.8642  145.9732  161.9623 C.ar    1  UNL1        0.1067
     19 C         140.5046  145.4893  160.6952 C.ar    1  UNL1        0.0577
     20 S         140.9348  144.0680  160.9067 S.2     1  UNL1       -0.0586
     21 C         141.5375  138.3245  164.8412 C.2     1  UNL1        0.3448
     22 O         140.4723  137.2692  164.8002 O.2     1  UNL1       -0.2450
     23 C         144.0242  138.9399  165.2740 C.3     1  UNL1        0.2559
     24 O         142.8469  138.0427  165.5164 O.3     1  UNL1       -0.4414
     25 C         141.9356  138.6798  161.8891 C.3     1  UNL1        0.1407
     26 N         141.5343  138.6042  160.4457 N.3     1  UNL1       -0.2584
     27 C         142.5828  138.4673  159.3819 C.3     1  UNL1        0.1052
     28 C         142.1815  138.3917  157.9385 C.3     1  UNL1        0.1595
     29 O         140.7316  138.4529  157.5591 O.3     1  UNL1       -0.3505
     30 C         139.6830  138.5898  158.6229 C.3     1  UNL1        0.1637
     31 C         140.0843  138.6654  160.0662 C.3     1  UNL1        0.1247
     32 C         139.0357  138.8023  161.1301 C.2     1  UNL1        0.0673
     33 O         138.3362  140.1142  161.3293 O.co2   1  UNL1       -0.5477
     34 O         138.6867  137.6273  161.9947 O.co2   1  UNL1       -0.5477
@<TRIPOS>UNITY_ATOM_ATTR
33 1
charge -1
@<TRIPOS>BOND
     1    23    24    1
     2    24    21    1
     3    21    22    2
     4    21     1    1
     5     1     2    2
     6     2    25    1
     7    25    26    1
     8    26    27    1
     9    27    28    1
    10    28    29    1
    11    29    30    1
    12    30    31    1
    13    31    32    1
    14    32    33   ar
    15    32    34   ar
    16     2     3    1
    17     3     4    1
    18     4    16    1
    19    16    17   ar
    20    17    18   ar
    21    18    19   ar
    22    19    20   ar
    23     4     5    2
    24     5     6    1
    25     6     8    1
    26     8     9   ar
    27     9    10   ar
    28    10    11   ar
    29    11    12    1
    30    11    13   ar
    31    13    14   ar
    32    14    15    1
    33     6     1    1
    34    14     8   ar
    35    31    26    1
    36    20    16   ar
    37     3     7    1
@<TRIPOS>MOLECULE
*****
 34 37 0 0 0
SMALL
GASTEIGER

@<TRIPOS>ATOM
      1 C         139.5450  141.0473  160.9236 C.2     1  UNL1        0.1397
      2 C         139.6482  140.3193  159.6162 C.2     1  UNL1        0.1355
      3 N         139.2428  141.0019  158.3436 N.pl3   1  UNL1       -0.1998
      4 C         138.7341  142.4126  158.3783 C.2     1  UNL1        0.3442
      5 N         138.6309  143.1406  159.6857 N.2     1  UNL1       -0.0580
      6 C         139.0364  142.4580  160.9584 C.3     1  UNL1        0.2695
      7 H         139.3105  140.5241  157.4855 H       1  UNL1        0.2983
      8 C         138.9332  143.1861  162.2658 C.ar    1  UNL1        0.0415
      9 C         137.6763  143.0925  163.0791 C.ar    1  UNL1        0.0034
     10 C         137.5730  143.8206  164.3865 C.ar    1  UNL1        0.0295
     11 C         138.7267  144.6422  164.8806 C.ar    1  UNL1        0.1410
     12 F         138.6234  145.3703  166.1879 F       1  UNL1       -0.2041
     13 C         139.9836  144.7358  164.0672 C.ar    1  UNL1        0.0408
     14 C         140.0868  144.0077  162.7598 C.ar    1  UNL1        0.0603
     15 CL        141.3437  144.1012  161.9465 Cl      1  UNL1       -0.0824
     16 C         138.3287  143.0952  157.1057 C.ar    1  UNL1        0.1931
     17 N         137.0334  142.9006  156.3748 N.ar    1  UNL1       -0.2297
     18 C         137.0515  143.7774  155.1579 C.ar    1  UNL1        0.1067
     19 C         138.3580  144.5140  155.1367 C.ar    1  UNL1        0.0577
     20 S         139.1474  144.0923  156.3405 S.2     1  UNL1       -0.0586
     21 C         139.9505  140.3647  162.1963 C.2     1  UNL1        0.3448
     22 O         141.3774  140.4199  162.6553 O.2     1  UNL1       -0.2450
     23 C         138.9506  138.1278  163.0603 C.3     1  UNL1        0.2559
     24 O         138.9290  139.6268  163.0099 O.3     1  UNL1       -0.4414
     25 C         140.1569  138.9085  159.5815 C.3     1  UNL1        0.1407
     26 N         140.8081  138.3765  158.3394 N.3     1  UNL1       -0.2584
     27 C         139.9849  137.6650  157.3068 C.3     1  UNL1        0.1052
     28 C         140.6362  137.1330  156.0647 C.3     1  UNL1        0.1595
     29 O         142.1106  137.3124  155.8552 O.3     1  UNL1       -0.3505
     30 C         142.9338  138.0239  156.8877 C.3     1  UNL1        0.1637
     31 C         142.2826  138.5559  158.1298 C.3     1  UNL1        0.1247
     32 C         143.1058  139.2674  159.1624 C.2     1  UNL1        0.0673
     33 O         143.9215  138.4797  160.1443 O.co2   1  UNL1       -0.5477
     34 O         143.1133  140.7665  159.2130 O.co2   1  UNL1       -0.5477
@<TRIPOS>UNITY_ATOM_ATTR
33 1
charge -1
@<TRIPOS>BOND
     1    23    24    1
     2    24    21    1
     3    21    22    2
     4    21     1    1
     5     1     2    2
     6     2    25    1
     7    25    26    1
     8    26    27    1
     9    27    28    1
    10    28    29    1
    11    29    30    1
    12    30    31    1
    13    31    32    1
    14    32    33   ar
    15    32    34   ar
    16     2     3    1
    17     3     4    1
    18     4    16    1
    19    16    17   ar
    20    17    18   ar
    21    18    19   ar
    22    19    20   ar
    23     4     5    2
    24     5     6    1
    25     6     8    1
    26     8     9   ar
    27     9    10   ar
    28    10    11   ar
    29    11    12    1
    30    11    13   ar
    31    13    14   ar
    32    14    15    1
    33     6     1    1
    34    14     8   ar
    35    31    26    1
    36    20    16   ar
    37     3     7    1
@<TRIPOS>MOLECULE
*****
 34 37 0 0 0
SMALL
GASTEIGER

@<TRIPOS>ATOM
      1 C         142.4095  139.8429  160.2854 C.2     1  UNL1        0.1397
      2 C         143.1779  140.1737  159.0404 C.2     1  UNL1        0.1355
      3 N         143.3818  139.1278  157.9847 N.pl3   1  UNL1       -0.1998
      4 C         142.8174  137.7510  158.1741 C.2     1  UNL1        0.3442
      5 N         142.0491  137.4202  159.4191 N.2     1  UNL1       -0.0580
      6 C         141.8451  138.4661  160.4748 C.3     1  UNL1        0.2695
      7 H         143.8861  139.3450  157.1676 H       1  UNL1        0.2983
      8 C         141.0768  138.1352  161.7199 C.ar    1  UNL1        0.0415
      9 C         141.8001  137.6479  162.9403 C.ar    1  UNL1        0.0034
     10 C         141.0318  137.3170  164.1853 C.ar    1  UNL1        0.0295
     11 C         139.5401  137.4734  164.2100 C.ar    1  UNL1        0.1410
     12 F         138.7718  137.1425  165.4551 F       1  UNL1       -0.2041
     13 C         138.8168  137.9607  162.9896 C.ar    1  UNL1        0.0408
     14 C         139.5852  138.2916  161.7445 C.ar    1  UNL1        0.0603
     15 CL        138.8619  138.7789  160.5241 Cl      1  UNL1       -0.0824
     16 C         143.0214  136.7051  157.1184 C.ar    1  UNL1        0.1931
     17 N         143.0654  135.2226  157.3429 N.ar    1  UNL1       -0.2297
     18 C         143.2883  134.5593  156.0162 C.ar    1  UNL1        0.1067
     19 C         143.3821  135.6318  154.9717 C.ar    1  UNL1        0.0577
     20 S         143.2172  136.9579  155.6529 S.2     1  UNL1       -0.0586
     21 C         142.2056  140.8888  161.3411 C.2     1  UNL1        0.3448
     22 O         140.9988  141.7783  161.2923 O.2     1  UNL1       -0.2450
     23 C         144.4723  140.2377  162.4309 C.3     1  UNL1        0.2559
     24 O         143.2084  141.0452  162.4455 O.3     1  UNL1       -0.4414
     25 C         143.7423  141.5506  158.8510 C.3     1  UNL1        0.1407
     26 N         143.3908  142.3434  157.6272 N.3     1  UNL1       -0.2584
     27 C         142.1251  143.1478  157.5926 C.3     1  UNL1        0.1052
     28 C         141.7736  143.9407  156.3687 C.3     1  UNL1        0.1595
     29 O         142.6877  143.9292  155.1795 O.3     1  UNL1       -0.3505
     30 C         143.9533  143.1248  155.2141 C.3     1  UNL1        0.1637
     31 C         144.3049  142.3320  156.4379 C.3     1  UNL1        0.1247
     32 C         145.5705  141.5276  156.4725 C.2     1  UNL1        0.0673
     33 O         145.5311  140.0549  156.1904 O.co2   1  UNL1       -0.5477
     34 O         146.8755  142.1960  156.7891 O.co2   1  UNL1       -0.5477
@<TRIPOS>UNITY_ATOM_ATTR
33 1
charge -1
@<TRIPOS>BOND
     1    23    24    1
     2    24    21    1
     3    21    22    2
     4    21     1    1
     5     1     2    2
     6     2    25    1
     7    25    26    1
     8    26    27    1
     9    27    28    1
    10    28    29    1
    11    29    30    1
    12    30    31    1
    13    31    32    1
    14    32    33   ar
    15    32    34   ar
    16     2     3    1
    17     3     4    1
    18     4    16    1
    19    16    17   ar
    20    17    18   ar
    21    18    19   ar
    22    19    20   ar
    23     4     5    2
    24     5     6    1
    25     6     8    1
    26     8     9   ar
    27     9    10   ar
    28    10    11   ar
    29    11    12    1
    30    11    13   ar
    31    13    14   ar
    32    14    15    1
    33     6     1    1
    34    14     8   ar
    35    31    26    1
    36    20    16   ar
    37     3     7    1
@<TRIPOS>MOLECULE
*****
 34 37 0 0 0
SMALL
GASTEIGER

@<TRIPOS>ATOM
      1 C         140.7013  141.6671  160.9485 C.2     1  UNL1        0.1397
      2 C         141.0099  140.9290  159.6797 C.2     1  UNL1        0.1355
      3 N         140.0189  140.9262  158.5537 N.pl3   1  UNL1       -0.1998
      4 C         138.7193  141.6615  158.6965 C.2     1  UNL1        0.3442
      5 N         138.4108  142.3996  159.9653 N.2     1  UNL1       -0.0580
      6 C         139.4018  142.4024  161.0913 C.3     1  UNL1        0.2695
      7 H         140.2214  140.4417  157.7209 H       1  UNL1        0.2983
      8 C         139.0932  143.1405  162.3602 C.ar    1  UNL1        0.0415
      9 C         139.7867  144.4359  162.6619 C.ar    1  UNL1        0.0034
     10 C         139.4781  145.1741  163.9307 C.ar    1  UNL1        0.0295
     11 C         138.4760  144.6168  164.8979 C.ar    1  UNL1        0.1410
     12 F         138.1675  145.3550  166.1667 F       1  UNL1       -0.2041
     13 C         137.7825  143.3214  164.5962 C.ar    1  UNL1        0.0408
     14 C         138.0911  142.5833  163.3273 C.ar    1  UNL1        0.0603
     15 CL        137.3976  141.2879  163.0256 Cl      1  UNL1       -0.0824
     16 C         137.7283  141.6587  157.5705 C.ar    1  UNL1        0.1931
     17 N         136.7369  140.5735  157.2712 N.ar    1  UNL1       -0.2297
     18 C         135.9505  140.9847  156.0618 C.ar    1  UNL1        0.1067
     19 C         136.4559  142.3240  155.6137 C.ar    1  UNL1        0.0577
     20 S         137.5546  142.7405  156.5461 S.2     1  UNL1       -0.0586
     21 C         141.6924  141.6699  162.0745 C.2     1  UNL1        0.3448
     22 O         141.5694  140.6683  163.1843 O.2     1  UNL1       -0.2450
     23 C         143.3498  143.1704  163.3978 C.3     1  UNL1        0.2559
     24 O         142.8063  142.6743  162.0907 O.3     1  UNL1       -0.4414
     25 C         142.3095  140.1936  159.5368 C.3     1  UNL1        0.1407
     26 N         143.3581  140.7007  158.5917 N.3     1  UNL1       -0.2584
     27 C         144.1824  141.8989  158.9589 C.3     1  UNL1        0.1052
     28 C         145.2311  142.4060  158.0137 C.3     1  UNL1        0.1595
     29 O         145.4555  141.7148  156.7015 O.3     1  UNL1       -0.3505
     30 C         144.6312  140.5165  156.3344 C.3     1  UNL1        0.1637
     31 C         143.5826  140.0095  157.2795 C.3     1  UNL1        0.1247
     32 C         142.7583  138.8113  156.9123 C.2     1  UNL1        0.0673
     33 O         141.3545  138.9905  156.4148 O.co2   1  UNL1       -0.5477
     34 O         143.3376  137.4339  157.0427 O.co2   1  UNL1       -0.5477
@<TRIPOS>UNITY_ATOM_ATTR
33 1
charge -1
@<TRIPOS>BOND
     1    23    24    1
     2    24    21    1
     3    21    22    2
     4    21     1    1
     5     1     2    2
     6     2    25    1
     7    25    26    1
     8    26    27    1
     9    27    28    1
    10    28    29    1
    11    29    30    1
    12    30    31    1
    13    31    32    1
    14    32    33   ar
    15    32    34   ar
    16     2     3    1
    17     3     4    1
    18     4    16    1
    19    16    17   ar
    20    17    18   ar
    21    18    19   ar
    22    19    20   ar
    23     4     5    2
    24     5     6    1
    25     6     8    1
    26     8     9   ar
    27     9    10   ar
    28    10    11   ar
    29    11    12    1
    30    11    13   ar
    31    13    14   ar
    32    14    15    1
    33     6     1    1
    34    14     8   ar
    35    31    26    1
    36    20    16   ar
    37     3     7    1
