@<TRIPOS>MOLECULE
*****
 38 44 0 0 0
SMALL
GASTEIGER

@<TRIPOS>ATOM
      1 C         142.5657  136.9923  158.0800 C.3     1  UNL1        0.1161
      2 C         143.2824  135.6881  157.8915 C.3     1  UNL1        0.0510
      3 C         142.9835  134.8342  156.6951 C.2     1  UNL1       -0.0044
      4 C         141.9678  135.2844  155.6872 C.2     1  UNL1        0.0689
      5 N         141.8834  134.2385  154.6154 N.2     1  UNL1       -0.2526
      6 C         142.8469  133.1419  154.9607 C.2     1  UNL1        0.0627
      7 C         143.1929  131.8557  154.2708 C.3     1  UNL1        0.0717
      8 C         144.2188  130.9377  154.8663 C.2     1  UNL1       -0.0198
      9 C         144.8987  131.3059  156.1517 C.2     1  UNL1       -0.0042
     10 C         144.5527  132.5920  156.8416 C.2     1  UNL1        0.0006
     11 C         143.5268  133.5101  156.2461 C.2     1  UNL1        0.0111
     12 C         141.2511  136.5885  155.8758 C.3     1  UNL1        0.0949
     13 N         141.5501  137.4425  157.0722 N.3     1  UNL1       -0.2887
     14 H         140.6706  137.5639  157.5744 H       1  UNL1        0.1239
     15 C         142.8560  138.7454  161.5308 C.ar    1  UNL1        0.0769
     16 C         143.7934  139.5751  160.7044 C.ar    1  UNL1        0.1171
     17 N         143.7988  139.0193  159.3112 N.ar    1  UNL1       -0.2282
     18 C         142.8647  137.8462  159.2765 C.ar    1  UNL1        0.1318
     19 N         142.2820  137.6769  160.6482 N.ar    1  UNL1       -0.3397
     20 H         141.6362  136.9858  160.9214 H       1  UNL1        0.1671
     21 C         141.9286  139.3549  165.8918 C.ar    1  UNL1        0.0000
     22 C         140.8120  139.2079  164.9010 C.ar    1  UNL1        0.0000
     23 C         141.1211  139.0048  163.4473 C.ar    1  UNL1        0.0015
     24 C         142.5468  138.9486  162.9845 C.ar    1  UNL1        0.0172
     25 C         143.6634  139.0955  163.9753 C.ar    1  UNL1        0.0015
     26 C         143.3542  139.2987  165.4289 C.ar    1  UNL1        0.0000
     27 C         141.0011  139.9643  170.2529 C.ar    1  UNL1        0.0000
     28 C         142.3515  139.4614  169.8364 C.ar    1  UNL1        0.0000
     29 C         142.6607  139.2582  168.3827 C.ar    1  UNL1        0.0000
     30 C         141.6194  139.5580  167.3455 C.ar    1  UNL1        0.0000
     31 C         140.2690  140.0609  167.7619 C.ar    1  UNL1        0.0000
     32 C         139.9598  140.2641  169.2156 C.ar    1  UNL1        0.0000
     33 C         140.2355  137.0387  154.8680 C.3     1  UNL1        0.0252
     34 C         138.7978  137.1895  155.2680 C.3     1  UNL1        0.0339
     35 C         137.7821  137.6397  154.2600 C.3     1  UNL1        0.1422
     36 O         138.2042  137.9391  152.8522 O.3     1  UNL1       -0.3538
     37 C         139.6420  137.7884  152.4521 C.3     1  UNL1        0.1422
     38 C         140.6576  137.3382  153.4600 C.3     1  UNL1        0.0339
@<TRIPOS>BOND
     1    27    28   ar
     2    28    29   ar
     3    29    30   ar
     4    30    21    1
     5    21    22   ar
     6    22    23   ar
     7    23    24   ar
     8    24    15    1
     9    15    16   ar
    10    16    17   ar
    11    17    18   ar
    12     1    18    1
    13     1     2    1
    14     2     3    1
    15     3     4    2
    16     4     5    1
    17     5     6    2
    18     6     7    1
    19     7     8    1
    20     8     9    2
    21     9    10    1
    22    10    11    2
    23     4    12    1
    24    12    33    1
    25    33    34    1
    26    34    35    1
    27    35    36    1
    28    36    37    1
    29    37    38    1
    30    12    13    1
    31    18    19   ar
    32    24    25   ar
    33    25    26   ar
    34    30    31   ar
    35    31    32   ar
    36    32    27   ar
    37    26    21   ar
    38    19    15   ar
    39    13     1    1
    40    11     3    1
    41    38    33    1
    42    11     6    1
    43    13    14    1
    44    19    20    1
@<TRIPOS>MOLECULE
*****
 38 44 0 0 0
SMALL
GASTEIGER

@<TRIPOS>ATOM
      1 C         139.8787  144.2521  158.3245 C.3     1  UNL1        0.1161
      2 C         138.8663  143.2070  157.9597 C.3     1  UNL1        0.0510
      3 C         138.1685  143.2694  156.6334 C.2     1  UNL1       -0.0044
      4 C         138.4831  144.3768  155.6718 C.2     1  UNL1        0.0689
      5 N         137.6413  144.1794  154.4461 N.2     1  UNL1       -0.2526
      6 C         136.8065  142.9500  154.6501 C.2     1  UNL1        0.0627
      7 C         135.7917  142.2701  153.7797 C.3     1  UNL1        0.0717
      8 C         135.1027  141.0277  154.2610 C.2     1  UNL1       -0.0198
      9 C         135.4286  140.4652  155.6129 C.2     1  UNL1       -0.0042
     10 C         136.4433  141.1452  156.4834 C.2     1  UNL1        0.0006
     11 C         137.1323  142.3876  156.0020 C.2     1  UNL1        0.0111
     12 C         139.4955  145.4218  156.0366 C.3     1  UNL1        0.0949
     13 N         140.1933  145.3595  157.3629 N.3     1  UNL1       -0.2887
     14 H         139.9886  146.2349  157.8447 H       1  UNL1        0.1239
     15 C         141.0320  143.8049  162.0035 C.ar    1  UNL1        0.0769
     16 C         142.2682  144.3824  161.3804 C.ar    1  UNL1        0.1171
     17 N         141.9867  144.6202  159.9264 N.ar    1  UNL1       -0.2282
     18 C         140.5765  144.1897  159.6509 C.ar    1  UNL1        0.1318
     19 N         139.9864  143.6858  160.9346 N.ar    1  UNL1       -0.3397
     20 H         139.0732  143.3380  161.0545 H       1  UNL1        0.1671
     21 C         140.5454  142.6351  166.3215 C.ar    1  UNL1        0.0000
     22 C         141.6195  142.0002  165.4889 C.ar    1  UNL1        0.0000
     23 C         141.7817  142.3901  164.0496 C.ar    1  UNL1        0.0015
     24 C         140.8698  143.4149  163.4429 C.ar    1  UNL1        0.0172
     25 C         139.7957  144.0498  164.2755 C.ar    1  UNL1        0.0015
     26 C         139.6335  143.6599  165.7147 C.ar    1  UNL1        0.0000
     27 C         140.0588  141.4653  170.6395 C.ar    1  UNL1        0.0000
     28 C         140.2473  142.9068  170.2696 C.ar    1  UNL1        0.0000
     29 C         140.4094  143.2966  168.8303 C.ar    1  UNL1        0.0000
     30 C         140.3832  142.2451  167.7608 C.ar    1  UNL1        0.0000
     31 C         140.1947  140.8038  168.1307 C.ar    1  UNL1        0.0000
     32 C         140.0325  140.4138  169.5701 C.ar    1  UNL1        0.0000
     33 C         139.8101  146.5292  155.0750 C.3     1  UNL1        0.0252
     34 C         139.2299  147.8957  155.2890 C.3     1  UNL1        0.0339
     35 C         139.5446  149.0032  154.3273 C.3     1  UNL1        0.1422
     36 O         140.4394  148.7440  153.1517 O.3     1  UNL1       -0.3538
     37 C         141.0197  147.3774  152.9377 C.3     1  UNL1        0.1422
     38 C         140.7050  146.2701  153.8993 C.3     1  UNL1        0.0339
@<TRIPOS>BOND
     1    27    28   ar
     2    28    29   ar
     3    29    30   ar
     4    30    21    1
     5    21    22   ar
     6    22    23   ar
     7    23    24   ar
     8    24    15    1
     9    15    16   ar
    10    16    17   ar
    11    17    18   ar
    12     1    18    1
    13     1     2    1
    14     2     3    1
    15     3     4    2
    16     4     5    1
    17     5     6    2
    18     6     7    1
    19     7     8    1
    20     8     9    2
    21     9    10    1
    22    10    11    2
    23     4    12    1
    24    12    33    1
    25    33    34    1
    26    34    35    1
    27    35    36    1
    28    36    37    1
    29    37    38    1
    30    12    13    1
    31    18    19   ar
    32    24    25   ar
    33    25    26   ar
    34    30    31   ar
    35    31    32   ar
    36    32    27   ar
    37    26    21   ar
    38    19    15   ar
    39    13     1    1
    40    11     3    1
    41    38    33    1
    42    11     6    1
    43    13    14    1
    44    19    20    1
@<TRIPOS>MOLECULE
*****
 38 44 0 0 0
SMALL
GASTEIGER

@<TRIPOS>ATOM
      1 C         141.9849  139.9066  160.6325 C.3     1  UNL1        0.1161
      2 C         142.4404  139.2842  161.9191 C.3     1  UNL1        0.0510
      3 C         142.1711  139.9749  163.2230 C.2     1  UNL1       -0.0044
      4 C         141.4463  141.2880  163.2405 C.2     1  UNL1        0.0689
      5 N         141.3245  141.7313  164.6683 N.2     1  UNL1       -0.2526
      6 C         141.9741  140.6921  165.5333 C.2     1  UNL1        0.0627
      7 C         142.1568  140.5941  167.0189 C.3     1  UNL1        0.0717
      8 C         142.8626  139.4106  167.6112 C.2     1  UNL1       -0.0198
      9 C         143.3858  138.3250  166.7179 C.2     1  UNL1       -0.0042
     10 C         143.2032  138.4230  165.2324 C.2     1  UNL1        0.0006
     11 C         142.4973  139.6066  164.6400 C.2     1  UNL1        0.0111
     12 C         140.9908  141.9105  161.9539 C.3     1  UNL1        0.0949
     13 N         141.2601  141.2198  160.6500 N.3     1  UNL1       -0.2887
     14 H         141.8079  141.8661  160.0821 H       1  UNL1        0.1239
     15 C         142.7069  137.4943  157.6788 C.ar    1  UNL1        0.0769
     16 C         142.6304  138.8114  156.9652 C.ar    1  UNL1        0.1171
     17 N         142.3506  139.8754  157.9848 N.ar    1  UNL1       -0.2282
     18 C         142.2542  139.2158  159.3285 C.ar    1  UNL1        0.1318
     19 N         142.4744  137.7442  159.1394 N.ar    1  UNL1       -0.3397
     20 H         142.4676  137.0622  159.8493 H       1  UNL1        0.1671
     21 C         143.4955  133.4951  155.7723 C.ar    1  UNL1        0.0000
     22 C         143.6504  133.6628  157.2549 C.ar    1  UNL1        0.0000
     23 C         143.3875  134.9958  157.8903 C.ar    1  UNL1        0.0015
     24 C         142.9698  136.1611  157.0433 C.ar    1  UNL1        0.0172
     25 C         142.8150  135.9934  155.5608 C.ar    1  UNL1        0.0015
     26 C         143.0778  134.6604  154.9253 C.ar    1  UNL1        0.0000
     27 C         144.2842  129.4958  153.8659 C.ar    1  UNL1        0.0000
     28 C         143.3766  130.4820  153.1922 C.ar    1  UNL1        0.0000
     29 C         143.1138  131.8150  153.8277 C.ar    1  UNL1        0.0000
     30 C         143.7584  132.1620  155.1369 C.ar    1  UNL1        0.0000
     31 C         144.6660  131.1759  155.8106 C.ar    1  UNL1        0.0000
     32 C         144.9289  129.8427  155.1751 C.ar    1  UNL1        0.0000
     33 C         140.2659  143.2236  161.9714 C.3     1  UNL1        0.0252
     34 C         140.8231  144.3978  161.2226 C.3     1  UNL1        0.0339
     35 C         140.0982  145.7110  161.2401 C.3     1  UNL1        0.1422
     36 O         138.8162  145.8498  162.0063 O.3     1  UNL1       -0.3538
     37 C         138.2590  144.6756  162.7551 C.3     1  UNL1        0.1422
     38 C         138.9839  143.3625  162.7377 C.3     1  UNL1        0.0339
@<TRIPOS>BOND
     1    27    28   ar
     2    28    29   ar
     3    29    30   ar
     4    30    21    1
     5    21    22   ar
     6    22    23   ar
     7    23    24   ar
     8    24    15    1
     9    15    16   ar
    10    16    17   ar
    11    17    18   ar
    12     1    18    1
    13     1     2    1
    14     2     3    1
    15     3     4    2
    16     4     5    1
    17     5     6    2
    18     6     7    1
    19     7     8    1
    20     8     9    2
    21     9    10    1
    22    10    11    2
    23     4    12    1
    24    12    33    1
    25    33    34    1
    26    34    35    1
    27    35    36    1
    28    36    37    1
    29    37    38    1
    30    12    13    1
    31    18    19   ar
    32    24    25   ar
    33    25    26   ar
    34    30    31   ar
    35    31    32   ar
    36    32    27   ar
    37    26    21   ar
    38    19    15   ar
    39    13     1    1
    40    11     3    1
    41    38    33    1
    42    11     6    1
    43    13    14    1
    44    19    20    1
@<TRIPOS>MOLECULE
*****
 38 44 0 0 0
SMALL
GASTEIGER

@<TRIPOS>ATOM
      1 C         141.0183  144.9751  158.6883 C.3     1  UNL1        0.1161
      2 C         140.6131  145.9818  157.6527 C.3     1  UNL1        0.0510
      3 C         141.0915  145.8370  156.2384 C.2     1  UNL1       -0.0044
      4 C         141.9750  144.6855  155.8597 C.2     1  UNL1        0.0689
      5 N         142.2881  144.8030  154.3975 N.2     1  UNL1       -0.2526
      6 C         141.5982  146.0271  153.8725 C.2     1  UNL1        0.0627
      7 C         141.5478  146.6423  152.5054 C.3     1  UNL1        0.0717
      8 C         140.7579  147.8966  152.2762 C.2     1  UNL1       -0.0198
      9 C         140.0183  148.5357  153.4140 C.2     1  UNL1       -0.0042
     10 C         140.0686  147.9205  154.7810 C.2     1  UNL1        0.0006
     11 C         140.8586  146.6661  155.0103 C.2     1  UNL1        0.0111
     12 C         142.3802  143.6788  156.8953 C.3     1  UNL1        0.0949
     13 N         141.9019  143.8236  158.3095 N.3     1  UNL1       -0.2887
     14 H         142.7335  143.8850  158.8968 H       1  UNL1        0.1239
     15 C         140.1860  144.7266  162.4712 C.ar    1  UNL1        0.0769
     16 C         139.4218  145.9588  162.0867 C.ar    1  UNL1        0.1171
     17 N         139.6406  146.2018  160.6228 N.ar    1  UNL1       -0.2282
     18 C         140.5400  145.1199  160.1026 C.ar    1  UNL1        0.1318
     19 N         140.8770  144.2081  161.2450 N.ar    1  UNL1       -0.3397
     20 H         141.4510  143.4097  161.1982 H       1  UNL1        0.1671
     21 C         140.3726  142.9051  166.5819 C.ar    1  UNL1        0.0000
     22 C         139.3859  143.9963  166.2891 C.ar    1  UNL1        0.0000
     23 C         139.3236  144.6035  164.9190 C.ar    1  UNL1        0.0015
     24 C         140.2481  144.1194  163.8415 C.ar    1  UNL1        0.0172
     25 C         141.2348  143.0282  164.1342 C.ar    1  UNL1        0.0015
     26 C         141.2970  142.4211  165.5044 C.ar    1  UNL1        0.0000
     27 C         140.5591  141.0836  170.6926 C.ar    1  UNL1        0.0000
     28 C         140.5916  140.2020  169.4794 C.ar    1  UNL1        0.0000
     29 C         140.5294  140.8092  168.1092 C.ar    1  UNL1        0.0000
     30 C         140.4347  142.2980  167.9521 C.ar    1  UNL1        0.0000
     31 C         140.4022  143.1795  169.1653 C.ar    1  UNL1        0.0000
     32 C         140.4644  142.5724  170.5355 C.ar    1  UNL1        0.0000
     33 C         143.2637  142.5273  156.5166 C.3     1  UNL1        0.0252
     34 C         142.7670  141.4836  155.5607 C.3     1  UNL1        0.0339
     35 C         143.6506  140.3320  155.1820 C.3     1  UNL1        0.1422
     36 O         145.0309  140.2244  155.7592 O.3     1  UNL1       -0.3538
     37 C         145.5276  141.2682  156.7151 C.3     1  UNL1        0.1422
     38 C         144.6441  142.4196  157.0937 C.3     1  UNL1        0.0339
@<TRIPOS>BOND
     1    27    28   ar
     2    28    29   ar
     3    29    30   ar
     4    30    21    1
     5    21    22   ar
     6    22    23   ar
     7    23    24   ar
     8    24    15    1
     9    15    16   ar
    10    16    17   ar
    11    17    18   ar
    12     1    18    1
    13     1     2    1
    14     2     3    1
    15     3     4    2
    16     4     5    1
    17     5     6    2
    18     6     7    1
    19     7     8    1
    20     8     9    2
    21     9    10    1
    22    10    11    2
    23     4    12    1
    24    12    33    1
    25    33    34    1
    26    34    35    1
    27    35    36    1
    28    36    37    1
    29    37    38    1
    30    12    13    1
    31    18    19   ar
    32    24    25   ar
    33    25    26   ar
    34    30    31   ar
    35    31    32   ar
    36    32    27   ar
    37    26    21   ar
    38    19    15   ar
    39    13     1    1
    40    11     3    1
    41    38    33    1
    42    11     6    1
    43    13    14    1
    44    19    20    1
@<TRIPOS>MOLECULE
*****
 38 44 0 0 0
SMALL
GASTEIGER

@<TRIPOS>ATOM
      1 C         141.6980  139.5964  161.0317 C.3     1  UNL1        0.1161
      2 C         140.8413  138.7950  161.9665 C.3     1  UNL1        0.0510
      3 C         140.4228  139.3760  163.2846 C.2     1  UNL1       -0.0044
      4 C         140.8612  140.7584  163.6679 C.2     1  UNL1        0.0689
      5 N         140.2964  141.0645  165.0233 N.2     1  UNL1       -0.2526
      6 C         139.5091  139.8714  165.4778 C.2     1  UNL1        0.0627
      7 C         138.7311  139.6004  166.7313 C.3     1  UNL1        0.0717
      8 C         138.0312  138.2858  166.9101 C.2     1  UNL1       -0.0198
      9 C         138.1093  137.2422  165.8355 C.2     1  UNL1       -0.0042
     10 C         138.8873  137.5132  164.5820 C.2     1  UNL1        0.0006
     11 C         139.5872  138.8278  164.4031 C.2     1  UNL1        0.0111
     12 C         141.7180  141.5597  162.7331 C.3     1  UNL1        0.0949
     13 N         142.1364  140.9787  161.4150 N.3     1  UNL1       -0.2887
     14 H         143.1563  140.9778  161.4041 H       1  UNL1        0.1239
     15 C         142.6803  137.4297  157.9648 C.ar    1  UNL1        0.0769
     16 C         142.8402  138.8125  157.4059 C.ar    1  UNL1        0.1171
     17 N         142.4917  139.7924  158.4867 N.ar    1  UNL1       -0.2282
     18 C         142.1164  139.0153  159.7136 C.ar    1  UNL1        0.1318
     19 N         142.2330  137.5551  159.3910 N.ar    1  UNL1       -0.3397
     20 H         142.0483  136.8098  160.0072 H       1  UNL1        0.1671
     21 C         143.4139  133.5810  155.7514 C.ar    1  UNL1        0.0000
     22 C         143.0240  134.8175  154.9970 C.ar    1  UNL1        0.0000
     23 C         142.7795  136.1003  155.7347 C.ar    1  UNL1        0.0015
     24 C         142.9248  136.1468  157.2269 C.ar    1  UNL1        0.0172
     25 C         143.3147  134.9103  157.9813 C.ar    1  UNL1        0.0015
     26 C         143.5592  133.6274  157.2436 C.ar    1  UNL1        0.0000
     27 C         144.1474  129.7322  153.5378 C.ar    1  UNL1        0.0000
     28 C         143.2867  130.7974  152.9255 C.ar    1  UNL1        0.0000
     29 C         143.0423  132.0802  153.6634 C.ar    1  UNL1        0.0000
     30 C         143.6584  132.2980  155.0135 C.ar    1  UNL1        0.0000
     31 C         144.5189  131.2330  155.6259 C.ar    1  UNL1        0.0000
     32 C         144.7635  129.9500  154.8880 C.ar    1  UNL1        0.0000
     33 C         142.1563  142.9421  163.1164 C.3     1  UNL1        0.0252
     34 C         143.6014  143.2161  163.4104 C.3     1  UNL1        0.0339
     35 C         144.0397  144.5986  163.7937 C.3     1  UNL1        0.1422
     36 O         143.0329  145.7069  163.8829 O.3     1  UNL1       -0.3538
     37 C         141.5877  145.4328  163.5889 C.3     1  UNL1        0.1422
     38 C         141.1495  144.0505  163.2056 C.3     1  UNL1        0.0339
@<TRIPOS>BOND
     1    27    28   ar
     2    28    29   ar
     3    29    30   ar
     4    30    21    1
     5    21    22   ar
     6    22    23   ar
     7    23    24   ar
     8    24    15    1
     9    15    16   ar
    10    16    17   ar
    11    17    18   ar
    12     1    18    1
    13     1     2    1
    14     2     3    1
    15     3     4    2
    16     4     5    1
    17     5     6    2
    18     6     7    1
    19     7     8    1
    20     8     9    2
    21     9    10    1
    22    10    11    2
    23     4    12    1
    24    12    33    1
    25    33    34    1
    26    34    35    1
    27    35    36    1
    28    36    37    1
    29    37    38    1
    30    12    13    1
    31    18    19   ar
    32    24    25   ar
    33    25    26   ar
    34    30    31   ar
    35    31    32   ar
    36    32    27   ar
    37    26    21   ar
    38    19    15   ar
    39    13     1    1
    40    11     3    1
    41    38    33    1
    42    11     6    1
    43    13    14    1
    44    19    20    1
@<TRIPOS>MOLECULE
*****
 38 44 0 0 0
SMALL
GASTEIGER

@<TRIPOS>ATOM
      1 C         139.1453  139.4221  158.7251 C.3     1  UNL1        0.1161
      2 C         140.2697  138.4556  158.4976 C.3     1  UNL1        0.0510
      3 C         140.6005  138.0039  157.1061 C.2     1  UNL1       -0.0044
      4 C         139.8069  138.5187  155.9419 C.2     1  UNL1        0.0689
      5 N         140.3607  137.8990  154.6932 N.2     1  UNL1       -0.2526
      6 C         141.4965  137.0012  155.0856 C.2     1  UNL1        0.0627
      7 C         142.4150  136.1331  154.2777 C.3     1  UNL1        0.0717
      8 C         143.4816  135.3299  154.9610 C.2     1  UNL1       -0.0198
      9 C         143.6298  135.3947  156.4522 C.2     1  UNL1       -0.0042
     10 C         142.7114  136.2628  157.2602 C.2     1  UNL1        0.0006
     11 C         141.6447  137.0661  156.5768 C.2     1  UNL1        0.0111
     12 C         138.6825  139.4852  156.1694 C.3     1  UNL1        0.0949
     13 N         138.3517  139.9369  157.5609 N.3     1  UNL1       -0.2887
     14 H         137.3794  139.6797  157.7307 H       1  UNL1        0.1239
     15 C         139.0371  140.6094  162.4189 C.ar    1  UNL1        0.0769
     16 C         137.5742  140.5285  162.0975 C.ar    1  UNL1        0.1171
     17 N         137.4366  140.0739  160.6747 N.ar    1  UNL1       -0.2282
     18 C         138.8145  139.8739  160.1167 C.ar    1  UNL1        0.1318
     19 N         139.8037  140.2048  161.1947 N.ar    1  UNL1       -0.3397
     20 H         140.7840  140.1638  161.1130 H       1  UNL1        0.1671
     21 C         140.8142  141.8486  166.3630 C.ar    1  UNL1        0.0000
     22 C         139.7250  140.8181  166.3218 C.ar    1  UNL1        0.0000
     23 C         139.1326  140.4051  165.0071 C.ar    1  UNL1        0.0015
     24 C         139.6295  141.0225  163.7336 C.ar    1  UNL1        0.0172
     25 C         140.7187  142.0530  163.7748 C.ar    1  UNL1        0.0015
     26 C         141.3111  142.4660  165.0895 C.ar    1  UNL1        0.0000
     27 C         142.5913  143.0877  170.3073 C.ar    1  UNL1        0.0000
     28 C         141.1629  143.4190  169.9910 C.ar    1  UNL1        0.0000
     29 C         140.5706  143.0059  168.6763 C.ar    1  UNL1        0.0000
     30 C         141.4066  142.2616  167.6778 C.ar    1  UNL1        0.0000
     31 C         142.8350  141.9303  167.9940 C.ar    1  UNL1        0.0000
     32 C         143.4274  142.3434  169.3088 C.ar    1  UNL1        0.0000
     33 C         137.8889  139.9999  155.0052 C.3     1  UNL1        0.0252
     34 C         138.2123  141.3382  154.4102 C.3     1  UNL1        0.0339
     35 C         137.4186  141.8530  153.2460 C.3     1  UNL1        0.1422
     36 O         136.3016  141.0293  152.6769 O.3     1  UNL1       -0.3538
     37 C         135.9782  139.6909  153.2720 C.3     1  UNL1        0.1422
     38 C         136.7718  139.1763  154.4361 C.3     1  UNL1        0.0339
@<TRIPOS>BOND
     1    27    28   ar
     2    28    29   ar
     3    29    30   ar
     4    30    21    1
     5    21    22   ar
     6    22    23   ar
     7    23    24   ar
     8    24    15    1
     9    15    16   ar
    10    16    17   ar
    11    17    18   ar
    12     1    18    1
    13     1     2    1
    14     2     3    1
    15     3     4    2
    16     4     5    1
    17     5     6    2
    18     6     7    1
    19     7     8    1
    20     8     9    2
    21     9    10    1
    22    10    11    2
    23     4    12    1
    24    12    33    1
    25    33    34    1
    26    34    35    1
    27    35    36    1
    28    36    37    1
    29    37    38    1
    30    12    13    1
    31    18    19   ar
    32    24    25   ar
    33    25    26   ar
    34    30    31   ar
    35    31    32   ar
    36    32    27   ar
    37    26    21   ar
    38    19    15   ar
    39    13     1    1
    40    11     3    1
    41    38    33    1
    42    11     6    1
    43    13    14    1
    44    19    20    1
@<TRIPOS>MOLECULE
*****
 38 44 0 0 0
SMALL
GASTEIGER

@<TRIPOS>ATOM
      1 C         143.4620  140.4131  157.9962 C.3     1  UNL1        0.1161
      2 C         143.9933  140.4052  159.3990 C.3     1  UNL1        0.0510
      3 C         143.8262  141.6140  160.2711 C.2     1  UNL1       -0.0044
      4 C         143.1277  142.8308  159.7405 C.2     1  UNL1        0.0689
      5 N         143.1119  143.8663  160.8257 N.2     1  UNL1       -0.2526
      6 C         143.8005  143.2894  162.0270 C.2     1  UNL1        0.0627
      7 C         144.0825  143.8518  163.3886 C.3     1  UNL1        0.0717
      8 C         144.8061  143.0222  164.4075 C.2     1  UNL1       -0.0198
      9 C         145.2476  141.6302  164.0647 C.2     1  UNL1       -0.0042
     10 C         144.9655  141.0678  162.7031 C.2     1  UNL1        0.0006
     11 C         144.2420  141.8974  161.6842 C.2     1  UNL1        0.0111
     12 C         142.5964  142.8388  158.3378 C.3     1  UNL1        0.0949
     13 N         142.7636  141.6299  157.4656 N.3     1  UNL1       -0.2887
     14 H         143.2827  141.9313  156.6410 H       1  UNL1        0.1239
     15 C         143.4099  136.9631  156.2185 C.ar    1  UNL1        0.0769
     16 C         144.3629  137.7246  155.3456 C.ar    1  UNL1        0.1171
     17 N         144.4984  139.1096  155.9053 N.ar    1  UNL1       -0.2282
     18 C         143.6292  139.2041  157.1241 C.ar    1  UNL1        0.1318
     19 N         142.9565  137.8776  157.3177 N.ar    1  UNL1       -0.3397
     20 H         142.3277  137.6475  158.0394 H       1  UNL1        0.1671
     21 C         142.1350  132.6863  155.6411 C.ar    1  UNL1        0.0000
     22 C         143.3454  133.0029  156.4686 C.ar    1  UNL1        0.0000
     23 C         143.7704  134.4285  156.6611 C.ar    1  UNL1        0.0015
     24 C         142.9850  135.5374  156.0261 C.ar    1  UNL1        0.0172
     25 C         141.7746  135.2208  155.1986 C.ar    1  UNL1        0.0015
     26 C         141.3496  133.7953  155.0061 C.ar    1  UNL1        0.0000
     27 C         140.8602  128.4094  155.0638 C.ar    1  UNL1        0.0000
     28 C         142.1534  128.7194  155.7578 C.ar    1  UNL1        0.0000
     29 C         142.5783  130.1450  155.9502 C.ar    1  UNL1        0.0000
     30 C         141.7100  131.2606  155.4487 C.ar    1  UNL1        0.0000
     31 C         140.4169  130.9506  154.7547 C.ar    1  UNL1        0.0000
     32 C         139.9919  129.5250  154.5622 C.ar    1  UNL1        0.0000
     33 C         141.8980  144.0556  157.8071 C.3     1  UNL1        0.0252
     34 C         140.8015  144.6981  158.6038 C.3     1  UNL1        0.0339
     35 C         140.1031  145.9150  158.0731 C.3     1  UNL1        0.1422
     36 O         140.5012  146.4892  156.7458 O.3     1  UNL1       -0.3538
     37 C         141.5978  145.8466  155.9491 C.3     1  UNL1        0.1422
     38 C         142.2961  144.6299  156.4798 C.3     1  UNL1        0.0339
@<TRIPOS>BOND
     1    27    28   ar
     2    28    29   ar
     3    29    30   ar
     4    30    21    1
     5    21    22   ar
     6    22    23   ar
     7    23    24   ar
     8    24    15    1
     9    15    16   ar
    10    16    17   ar
    11    17    18   ar
    12     1    18    1
    13     1     2    1
    14     2     3    1
    15     3     4    2
    16     4     5    1
    17     5     6    2
    18     6     7    1
    19     7     8    1
    20     8     9    2
    21     9    10    1
    22    10    11    2
    23     4    12    1
    24    12    33    1
    25    33    34    1
    26    34    35    1
    27    35    36    1
    28    36    37    1
    29    37    38    1
    30    12    13    1
    31    18    19   ar
    32    24    25   ar
    33    25    26   ar
    34    30    31   ar
    35    31    32   ar
    36    32    27   ar
    37    26    21   ar
    38    19    15   ar
    39    13     1    1
    40    11     3    1
    41    38    33    1
    42    11     6    1
    43    13    14    1
    44    19    20    1
@<TRIPOS>MOLECULE
*****
 38 44 0 0 0
SMALL
GASTEIGER

@<TRIPOS>ATOM
      1 C         142.0291  138.8214  158.5439 C.3     1  UNL1        0.1161
      2 C         143.0479  139.8897  158.2782 C.3     1  UNL1        0.0510
      3 C         143.9182  139.8096  157.0591 C.2     1  UNL1       -0.0044
      4 C         143.7697  138.6611  156.1058 C.2     1  UNL1        0.0689
      5 N         144.7611  138.8489  154.9959 N.2     1  UNL1       -0.2526
      6 C         145.5224  140.1134  155.2633 C.2     1  UNL1        0.0627
      7 C         146.6226  140.8008  154.5104 C.3     1  UNL1        0.0717
      8 C         147.2019  142.0820  155.0328 C.2     1  UNL1       -0.0198
      9 C         146.6810  142.6758  156.3079 C.2     1  UNL1       -0.0042
     10 C         145.5808  141.9884  157.0608 C.2     1  UNL1        0.0006
     11 C         145.0014  140.7072  156.5385 C.2     1  UNL1        0.0111
     12 C         142.7508  137.5928  156.3715 C.3     1  UNL1        0.0949
     13 N         141.8805  137.6729  157.5905 N.3     1  UNL1       -0.2887
     14 H         142.0462  136.8215  158.1271 H       1  UNL1        0.1239
     15 C         140.3589  139.4016  161.9992 C.ar    1  UNL1        0.0769
     16 C         139.2803  138.6483  161.2788 C.ar    1  UNL1        0.1171
     17 N         139.7746  138.3392  159.8967 N.ar    1  UNL1       -0.2282
     18 C         141.1587  138.9015  159.7630 C.ar    1  UNL1        0.1318
     19 N         141.5199  139.5582  161.0624 N.ar    1  UNL1       -0.3397
     20 H         142.3697  140.0121  161.2648 H       1  UNL1        0.1671
     21 C         140.1487  140.9246  166.2284 C.ar    1  UNL1        0.0000
     22 C         141.3653  141.1948  165.3936 C.ar    1  UNL1        0.0000
     23 C         141.4353  140.6871  163.9839 C.ar    1  UNL1        0.0015
     24 C         140.2889  139.9093  163.4090 C.ar    1  UNL1        0.0172
     25 C         139.0723  139.6391  164.2439 C.ar    1  UNL1        0.0015
     26 C         139.0022  140.1468  165.6536 C.ar    1  UNL1        0.0000
     27 C         139.9386  142.4476  170.4577 C.ar    1  UNL1        0.0000
     28 C         139.4828  141.0546  170.1386 C.ar    1  UNL1        0.0000
     29 C         139.5529  140.5470  168.7289 C.ar    1  UNL1        0.0000
     30 C         140.0787  141.4323  167.6382 C.ar    1  UNL1        0.0000
     31 C         140.5345  142.8253  167.9572 C.ar    1  UNL1        0.0000
     32 C         140.4644  143.3330  169.3670 C.ar    1  UNL1        0.0000
     33 C         142.6022  136.4443  155.4181 C.3     1  UNL1        0.0252
     34 C         143.0782  135.0772  155.8108 C.3     1  UNL1        0.0339
     35 C         142.9296  133.9287  154.8573 C.3     1  UNL1        0.1422
     36 O         142.3050  134.1474  153.5112 O.3     1  UNL1       -0.3538
     37 C         141.8290  135.5146  153.1185 C.3     1  UNL1        0.1422
     38 C         141.9776  136.6630  154.0719 C.3     1  UNL1        0.0339
@<TRIPOS>BOND
     1    27    28   ar
     2    28    29   ar
     3    29    30   ar
     4    30    21    1
     5    21    22   ar
     6    22    23   ar
     7    23    24   ar
     8    24    15    1
     9    15    16   ar
    10    16    17   ar
    11    17    18   ar
    12     1    18    1
    13     1     2    1
    14     2     3    1
    15     3     4    2
    16     4     5    1
    17     5     6    2
    18     6     7    1
    19     7     8    1
    20     8     9    2
    21     9    10    1
    22    10    11    2
    23     4    12    1
    24    12    33    1
    25    33    34    1
    26    34    35    1
    27    35    36    1
    28    36    37    1
    29    37    38    1
    30    12    13    1
    31    18    19   ar
    32    24    25   ar
    33    25    26   ar
    34    30    31   ar
    35    31    32   ar
    36    32    27   ar
    37    26    21   ar
    38    19    15   ar
    39    13     1    1
    40    11     3    1
    41    38    33    1
    42    11     6    1
    43    13    14    1
    44    19    20    1
@<TRIPOS>MOLECULE
*****
 38 44 0 0 0
SMALL
GASTEIGER

@<TRIPOS>ATOM
      1 C         143.3193  143.2450  158.8568 C.3     1  UNL1        0.1161
      2 C         142.2685  144.2518  158.4927 C.3     1  UNL1        0.0510
      3 C         142.0279  144.5975  157.0531 C.2     1  UNL1       -0.0044
      4 C         142.8381  143.9366  155.9776 C.2     1  UNL1        0.0689
      5 N         142.3793  144.4750  154.6548 N.2     1  UNL1       -0.2526
      6 C         141.2857  145.4687  154.9129 C.2     1  UNL1        0.0627
      7 C         140.4596  146.3143  153.9897 C.3     1  UNL1        0.0717
      8 C         139.4163  147.2357  154.5487 C.2     1  UNL1       -0.0198
      9 C         139.1991  147.3114  156.0310 C.2     1  UNL1       -0.0042
     10 C         140.0252  146.4658  156.9542 C.2     1  UNL1        0.0006
     11 C         141.0685  145.5444  156.3951 C.2     1  UNL1        0.0111
     12 C         143.8888  142.9299  156.3416 C.3     1  UNL1        0.0949
     13 N         144.1294  142.5841  157.7812 N.3     1  UNL1       -0.2887
     14 H         145.1076  142.7980  157.9759 H       1  UNL1        0.1239
     15 C         143.2114  142.5153  162.6675 C.ar    1  UNL1        0.0769
     16 C         144.6486  142.2191  162.3562 C.ar    1  UNL1        0.1171
     17 N         144.8639  142.4564  160.8909 N.ar    1  UNL1       -0.2282
     18 C         143.5599  142.8993  160.2965 C.ar    1  UNL1        0.1318
     19 N         142.5386  142.9357  161.3945 N.ar    1  UNL1       -0.3397
     20 H         141.5927  143.1907  161.2968 H       1  UNL1        0.1671
     21 C         141.2611  142.1985  166.7105 C.ar    1  UNL1        0.0000
     22 C         140.4409  142.5631  165.5086 C.ar    1  UNL1        0.0000
     23 C         141.0910  142.6687  164.1610 C.ar    1  UNL1        0.0015
     24 C         142.5613  142.4097  164.0152 C.ar    1  UNL1        0.0172
     25 C         143.3814  142.0452  165.2171 C.ar    1  UNL1        0.0015
     26 C         142.7313  141.9396  166.5647 C.ar    1  UNL1        0.0000
     27 C         139.3106  141.8818  170.7535 C.ar    1  UNL1        0.0000
     28 C         139.9786  143.1600  170.3410 C.ar    1  UNL1        0.0000
     29 C         140.6288  143.2655  168.9934 C.ar    1  UNL1        0.0000
     30 C         140.6109  142.0929  168.0581 C.ar    1  UNL1        0.0000
     31 C         139.9429  140.8148  168.4705 C.ar    1  UNL1        0.0000
     32 C         139.2927  140.7092  169.8182 C.ar    1  UNL1        0.0000
     33 C         144.6990  142.2690  155.2661 C.3     1  UNL1        0.0252
     34 C         146.1687  142.5476  155.1560 C.3     1  UNL1        0.0339
     35 C         146.9788  141.8866  154.0803 C.3     1  UNL1        0.1422
     36 O         146.3191  140.9470  153.1149 O.3     1  UNL1       -0.3538
     37 C         144.8493  140.6684  153.2250 C.3     1  UNL1        0.1422
     38 C         144.0393  141.3294  154.3006 C.3     1  UNL1        0.0339
@<TRIPOS>BOND
     1    27    28   ar
     2    28    29   ar
     3    29    30   ar
     4    30    21    1
     5    21    22   ar
     6    22    23   ar
     7    23    24   ar
     8    24    15    1
     9    15    16   ar
    10    16    17   ar
    11    17    18   ar
    12     1    18    1
    13     1     2    1
    14     2     3    1
    15     3     4    2
    16     4     5    1
    17     5     6    2
    18     6     7    1
    19     7     8    1
    20     8     9    2
    21     9    10    1
    22    10    11    2
    23     4    12    1
    24    12    33    1
    25    33    34    1
    26    34    35    1
    27    35    36    1
    28    36    37    1
    29    37    38    1
    30    12    13    1
    31    18    19   ar
    32    24    25   ar
    33    25    26   ar
    34    30    31   ar
    35    31    32   ar
    36    32    27   ar
    37    26    21   ar
    38    19    15   ar
    39    13     1    1
    40    11     3    1
    41    38    33    1
    42    11     6    1
    43    13    14    1
    44    19    20    1
