@<TRIPOS>MOLECULE
*****
 33 36 0 0 0
SMALL
GASTEIGER

@<TRIPOS>ATOM
      1 C         142.7999  141.6122  167.2536 C.3     1  UNL1        0.0888
      2 C         142.7492  142.2389  168.6155 C.3     1  UNL1        0.0203
      3 C         142.8351  144.2118  163.5806 C.3     1  UNL1        0.1097
      4 O         143.7869  145.0362  162.7654 O.3     1  UNL1       -0.3826
      5 C         141.5590  143.5621  164.0274 C.3     1  UNL1        0.0485
      6 C         141.5473  142.6956  165.2517 C.3     1  UNL1        0.0749
      7 N         142.8116  142.4787  166.0293 N.3     1  UNL1       -0.2713
      8 C         144.0876  143.1284  165.5824 C.3     1  UNL1        0.0749
      9 C         144.0994  143.9949  164.3581 C.3     1  UNL1        0.0485
     10 H         143.3117  145.4368  162.0207 H       1  UNL1        0.2107
     11 C         141.1804  144.8286  160.0265 C.ar    1  UNL1        0.1385
     12 C         140.0339  145.7213  160.3986 C.ar    1  UNL1        0.0369
     13 C         139.8211  146.1109  161.8315 C.ar    1  UNL1        0.0029
     14 C         140.7549  145.6077  162.8921 C.ar    1  UNL1       -0.0018
     15 C         141.9014  144.7150  162.5199 C.ar    1  UNL1        0.0048
     16 C         142.1142  144.3254  161.0871 C.ar    1  UNL1        0.0349
     17 C         142.1156  145.3678  157.6633 C.3     1  UNL1        0.2525
     18 O         141.3932  144.4390  158.5937 O.3     1  UNL1       -0.4714
     19 C         142.8387  140.1190  167.1161 C.3     1  UNL1        0.1472
     20 O         143.0734  139.2605  168.3235 O.3     1  UNL1       -0.3787
     21 H         143.0688  138.3264  168.0619 H       1  UNL1        0.2108
     22 C         142.6430  139.4844  165.7711 C.ar    1  UNL1        0.0053
     23 C         141.4833  138.5618  165.5387 C.ar    1  UNL1       -0.0007
     24 C         141.2876  137.9272  164.1938 C.ar    1  UNL1        0.0141
     25 C         142.2515  138.2151  163.0812 C.ar    1  UNL1        0.0462
     26 C         143.4112  139.1377  163.3135 C.ar    1  UNL1       -0.0085
     27 C         143.6069  139.7723  164.6584 C.ar    1  UNL1       -0.0049
     28 C         144.3751  139.4256  162.2009 C.3     1  UNL1        0.0372
     29 C         144.1793  138.7910  160.8559 C.3     1  UNL1        0.0901
     30 C         143.0196  137.8684  160.6236 C.2     1  UNL1        0.2264
     31 O         142.8239  137.2338  159.2786 O.2     1  UNL1       -0.2748
     32 N         142.0557  137.5805  161.7362 N.am    1  UNL1       -0.2842
     33 H         141.2946  136.9749  161.5837 H       1  UNL1        0.1548
@<TRIPOS>BOND
     1    17    18    1
     2    18    11    1
     3    11    12   ar
     4    12    13   ar
     5    13    14   ar
     6    14    15   ar
     7    15     3    1
     8     3     4    1
     9     3     5    1
    10     5     6    1
    11     6     7    1
    12     7     1    1
    13     1     2    1
    14     1    19    1
    15    19    20    1
    16    19    22    1
    17    22    23   ar
    18    23    24   ar
    19    24    25   ar
    20    25    26   ar
    21    26    27   ar
    22    26    28    1
    23    28    29    1
    24    29    30    1
    25    30    31    2
    26    30    32   am
    27     7     8    1
    28     8     9    1
    29    15    16   ar
    30    16    11   ar
    31     9     3    1
    32    27    22   ar
    33    32    25    1
    34     4    10    1
    35    20    21    1
    36    32    33    1
@<TRIPOS>MOLECULE
*****
 33 36 0 0 0
SMALL
GASTEIGER

@<TRIPOS>ATOM
      1 C         139.0889  138.8079  164.7894 C.3     1  UNL1        0.0888
      2 C         139.7546  137.6066  164.1861 C.3     1  UNL1        0.0203
      3 C         138.4382  142.5039  162.3063 C.3     1  UNL1        0.1097
      4 O         137.4039  143.5655  162.0751 O.3     1  UNL1       -0.3826
      5 C         139.7162  141.7292  162.1774 C.3     1  UNL1        0.0485
      6 C         139.9331  140.4972  163.0051 C.3     1  UNL1        0.0749
      7 N         138.8720  140.0399  163.9617 N.3     1  UNL1       -0.2713
      8 C         137.5940  140.8146  164.0905 C.3     1  UNL1        0.0749
      9 C         137.3771  142.0466  163.2629 C.3     1  UNL1        0.0485
     10 H         137.7267  144.1916  161.4082 H       1  UNL1        0.2107
     11 C         139.9148  143.6749  158.8136 C.ar    1  UNL1        0.1385
     12 C         140.5438  144.9819  159.1957 C.ar    1  UNL1        0.0369
     13 C         140.4710  145.4630  160.6147 C.ar    1  UNL1        0.0029
     14 C         139.7691  144.6369  161.6515 C.ar    1  UNL1       -0.0018
     15 C         139.1401  143.3299  161.2694 C.ar    1  UNL1        0.0048
     16 C         139.2129  142.8489  159.8505 C.ar    1  UNL1        0.0349
     17 C         138.7633  143.2249  156.5286 C.3     1  UNL1        0.2525
     18 O         139.9875  143.1939  157.3947 O.3     1  UNL1       -0.4714
     19 C         138.6402  138.7771  166.2203 C.3     1  UNL1        0.1472
     20 O         137.5049  137.8871  166.6314 O.3     1  UNL1       -0.3787
     21 H         137.3439  137.9868  167.5827 H       1  UNL1        0.2108
     22 C         139.3268  139.6363  167.2404 C.ar    1  UNL1        0.0053
     23 C         138.6670  139.9064  168.5600 C.ar    1  UNL1       -0.0007
     24 C         139.3536  140.7655  169.5799 C.ar    1  UNL1        0.0141
     25 C         140.7001  141.3546  169.2802 C.ar    1  UNL1        0.0462
     26 C         141.3600  141.0846  167.9605 C.ar    1  UNL1       -0.0085
     27 C         140.6734  140.2254  166.9406 C.ar    1  UNL1       -0.0049
     28 C         142.7065  141.6737  167.6608 C.3     1  UNL1        0.0372
     29 C         143.3931  142.5328  168.6807 C.3     1  UNL1        0.0901
     30 C         142.7333  142.8030  170.0005 C.2     1  UNL1        0.2264
     31 O         143.4199  143.6621  171.0204 O.2     1  UNL1       -0.2748
     32 N         141.3867  142.2139  170.3002 N.am    1  UNL1       -0.2842
     33 H         140.9536  142.3911  171.1664 H       1  UNL1        0.1548
@<TRIPOS>BOND
     1    17    18    1
     2    18    11    1
     3    11    12   ar
     4    12    13   ar
     5    13    14   ar
     6    14    15   ar
     7    15     3    1
     8     3     4    1
     9     3     5    1
    10     5     6    1
    11     6     7    1
    12     7     1    1
    13     1     2    1
    14     1    19    1
    15    19    20    1
    16    19    22    1
    17    22    23   ar
    18    23    24   ar
    19    24    25   ar
    20    25    26   ar
    21    26    27   ar
    22    26    28    1
    23    28    29    1
    24    29    30    1
    25    30    31    2
    26    30    32   am
    27     7     8    1
    28     8     9    1
    29    15    16   ar
    30    16    11   ar
    31     9     3    1
    32    27    22   ar
    33    32    25    1
    34     4    10    1
    35    20    21    1
    36    32    33    1
@<TRIPOS>MOLECULE
*****
 33 36 0 0 0
SMALL
GASTEIGER

@<TRIPOS>ATOM
      1 C         139.5473  140.5293  162.6937 C.3     1  UNL1        0.0888
      2 C         140.1468  139.1798  162.4301 C.3     1  UNL1        0.0203
      3 C         141.0646  144.1378  160.4741 C.3     1  UNL1        0.1097
      4 O         141.7513  145.4449  160.7388 O.3     1  UNL1       -0.3826
      5 C         140.4086  143.0168  159.7237 C.3     1  UNL1        0.0485
      6 C         139.9028  141.8140  160.4636 C.3     1  UNL1        0.0749
      7 N         140.0531  141.7321  161.9538 N.3     1  UNL1       -0.2713
      8 C         140.7091  142.8531  162.7041 C.3     1  UNL1        0.0749
      9 C         141.2149  144.0559  161.9643 C.3     1  UNL1        0.0485
     10 H         141.8802  145.9178  159.9018 H       1  UNL1        0.2107
     11 C         140.2559  146.2368  157.2045 C.ar    1  UNL1        0.1385
     12 C         141.3293  145.7452  156.2793 C.ar    1  UNL1        0.0369
     13 C         142.3145  144.7177  156.7523 C.ar    1  UNL1        0.0029
     14 C         142.2262  144.1819  158.1506 C.ar    1  UNL1       -0.0018
     15 C         141.1529  144.6736  159.0758 C.ar    1  UNL1        0.0048
     16 C         140.1677  145.7010  158.6028 C.ar    1  UNL1        0.0349
     17 C         138.9537  147.3824  155.2701 C.3     1  UNL1        0.2525
     18 O         139.2707  147.2643  156.7315 O.3     1  UNL1       -0.4714
     19 C         138.4420  140.6760  163.6971 C.3     1  UNL1        0.1472
     20 O         137.0509  140.9995  163.2387 O.3     1  UNL1       -0.3787
     21 H         136.4626  141.0586  164.0077 H       1  UNL1        0.2108
     22 C         138.7279  140.4991  165.1590 C.ar    1  UNL1        0.0053
     23 C         138.1793  139.3110  165.8921 C.ar    1  UNL1       -0.0007
     24 C         138.4651  139.1342  167.3539 C.ar    1  UNL1        0.0141
     25 C         139.2996  140.1455  168.0827 C.ar    1  UNL1        0.0462
     26 C         139.8482  141.3335  167.3496 C.ar    1  UNL1       -0.0085
     27 C         139.5623  141.5104  165.8877 C.ar    1  UNL1       -0.0049
     28 C         140.6826  142.3448  168.0783 C.3     1  UNL1        0.0372
     29 C         140.9685  142.1680  169.5401 C.3     1  UNL1        0.0901
     30 C         140.4199  140.9799  170.2733 C.2     1  UNL1        0.2264
     31 O         140.7057  140.8031  171.7351 O.2     1  UNL1       -0.2748
     32 N         139.5854  139.9686  169.5446 N.am    1  UNL1       -0.2842
     33 H         139.2253  139.1888  170.0257 H       1  UNL1        0.1548
@<TRIPOS>BOND
     1    17    18    1
     2    18    11    1
     3    11    12   ar
     4    12    13   ar
     5    13    14   ar
     6    14    15   ar
     7    15     3    1
     8     3     4    1
     9     3     5    1
    10     5     6    1
    11     6     7    1
    12     7     1    1
    13     1     2    1
    14     1    19    1
    15    19    20    1
    16    19    22    1
    17    22    23   ar
    18    23    24   ar
    19    24    25   ar
    20    25    26   ar
    21    26    27   ar
    22    26    28    1
    23    28    29    1
    24    29    30    1
    25    30    31    2
    26    30    32   am
    27     7     8    1
    28     8     9    1
    29    15    16   ar
    30    16    11   ar
    31     9     3    1
    32    27    22   ar
    33    32    25    1
    34     4    10    1
    35    20    21    1
    36    32    33    1
@<TRIPOS>MOLECULE
*****
 33 36 0 0 0
SMALL
GASTEIGER

@<TRIPOS>ATOM
      1 C         138.3616  138.9768  166.6427 C.3     1  UNL1        0.0888
      2 C         137.2507  138.2155  167.3032 C.3     1  UNL1        0.0203
      3 C         138.6001  139.1667  162.1530 C.3     1  UNL1        0.1097
      4 O         138.8286  138.2661  160.9753 O.3     1  UNL1       -0.3826
      5 C         138.3345  140.4136  162.9433 C.3     1  UNL1        0.0485
      6 C         138.2550  140.3504  164.4399 C.3     1  UNL1        0.0749
      7 N         138.4411  139.0401  165.1461 N.3     1  UNL1       -0.2713
      8 C         138.7067  137.7932  164.3558 C.3     1  UNL1        0.0749
      9 C         138.7862  137.8565  162.8592 C.3     1  UNL1        0.0485
     10 H         138.7872  138.7863  160.1577 H       1  UNL1        0.2107
     11 C         138.7914  142.5878  160.1506 C.ar    1  UNL1        0.1385
     12 C         138.2799  142.1590  158.8074 C.ar    1  UNL1        0.0369
     13 C         137.8750  140.7327  158.5793 C.ar    1  UNL1        0.0029
     14 C         137.9818  139.7354  159.6945 C.ar    1  UNL1       -0.0018
     15 C         138.4933  140.1641  161.0378 C.ar    1  UNL1        0.0048
     16 C         138.8982  141.5903  161.2659 C.ar    1  UNL1        0.0349
     17 C         139.6769  144.4500  161.7311 C.3     1  UNL1        0.2525
     18 O         139.1963  144.0140  160.3787 O.3     1  UNL1       -0.4714
     19 C         139.3930  139.6749  167.4787 C.3     1  UNL1        0.1472
     20 O         139.2041  139.7888  168.9624 O.3     1  UNL1       -0.3787
     21 H         139.9560  140.2646  169.3485 H       1  UNL1        0.2108
     22 C         140.6135  140.2590  166.8310 C.ar    1  UNL1        0.0053
     23 C         140.8792  141.7323  166.9236 C.ar    1  UNL1       -0.0007
     24 C         142.0996  142.3164  166.2759 C.ar    1  UNL1        0.0141
     25 C         143.0542  141.4271  165.5357 C.ar    1  UNL1        0.0462
     26 C         142.7885  139.9538  165.4432 C.ar    1  UNL1       -0.0085
     27 C         141.5681  139.3697  166.0909 C.ar    1  UNL1       -0.0049
     28 C         143.7431  139.0645  164.7030 C.3     1  UNL1        0.0372
     29 C         144.9635  139.6486  164.0554 C.3     1  UNL1        0.0901
     30 C         145.2293  141.1220  164.1479 C.2     1  UNL1        0.2264
     31 O         146.4497  141.7061  163.5003 O.2     1  UNL1       -0.2748
     32 N         144.2747  142.0113  164.8881 N.am    1  UNL1       -0.2842
     33 H         144.4491  142.9783  164.9488 H       1  UNL1        0.1548
@<TRIPOS>BOND
     1    17    18    1
     2    18    11    1
     3    11    12   ar
     4    12    13   ar
     5    13    14   ar
     6    14    15   ar
     7    15     3    1
     8     3     4    1
     9     3     5    1
    10     5     6    1
    11     6     7    1
    12     7     1    1
    13     1     2    1
    14     1    19    1
    15    19    20    1
    16    19    22    1
    17    22    23   ar
    18    23    24   ar
    19    24    25   ar
    20    25    26   ar
    21    26    27   ar
    22    26    28    1
    23    28    29    1
    24    29    30    1
    25    30    31    2
    26    30    32   am
    27     7     8    1
    28     8     9    1
    29    15    16   ar
    30    16    11   ar
    31     9     3    1
    32    27    22   ar
    33    32    25    1
    34     4    10    1
    35    20    21    1
    36    32    33    1
@<TRIPOS>MOLECULE
*****
 33 36 0 0 0
SMALL
GASTEIGER

@<TRIPOS>ATOM
      1 C         138.7902  139.9591  163.4328 C.3     1  UNL1        0.0888
      2 C         139.2230  138.7740  162.6214 C.3     1  UNL1        0.0203
      3 C         139.3028  139.9335  167.9034 C.3     1  UNL1        0.1097
      4 O         138.6077  139.4382  169.1369 O.3     1  UNL1       -0.3826
      5 C         140.3303  140.5963  167.0344 C.3     1  UNL1        0.0485
      6 C         140.1595  140.6049  165.5442 C.3     1  UNL1        0.0749
      7 N         138.9611  139.9506  164.9230 N.3     1  UNL1       -0.2713
      8 C         137.9337  139.2878  165.7919 C.3     1  UNL1        0.0749
      9 C         138.1045  139.2793  167.2821 C.3     1  UNL1        0.0485
     10 H         139.1250  139.6832  169.9200 H       1  UNL1        0.2107
     11 C         142.3851  140.0457  170.4008 C.ar    1  UNL1        0.1385
     12 C         142.1736  141.3801  171.0524 C.ar    1  UNL1        0.0369
     13 C         141.0051  142.2324  170.6543 C.ar    1  UNL1        0.0029
     14 C         140.0482  141.7501  169.6047 C.ar    1  UNL1       -0.0018
     15 C         140.2598  140.4157  168.9531 C.ar    1  UNL1        0.0048
     16 C         141.4282  139.5635  169.3511 C.ar    1  UNL1        0.0349
     17 C         143.5011  137.7079  170.5983 C.3     1  UNL1        0.2525
     18 O         143.5536  139.1935  170.7988 O.3     1  UNL1       -0.4714
     19 C         138.1866  141.1528  162.7539 C.3     1  UNL1        0.1472
     20 O         136.7008  141.3572  162.7773 O.3     1  UNL1       -0.3787
     21 H         136.4786  142.1697  162.2961 H       1  UNL1        0.2108
     22 C         139.0689  142.1420  162.0516 C.ar    1  UNL1        0.0053
     23 C         140.1156  142.8920  162.8209 C.ar    1  UNL1       -0.0007
     24 C         140.9977  143.8811  162.1186 C.ar    1  UNL1        0.0141
     25 C         140.8332  144.1203  160.6469 C.ar    1  UNL1        0.0462
     26 C         139.7865  143.3703  159.8776 C.ar    1  UNL1       -0.0085
     27 C         138.9043  142.3812  160.5799 C.ar    1  UNL1       -0.0049
     28 C         139.6220  143.6095  158.4060 C.3     1  UNL1        0.0372
     29 C         140.5041  144.5987  157.7037 C.3     1  UNL1        0.0901
     30 C         141.5509  145.3487  158.4730 C.2     1  UNL1        0.2264
     31 O         142.4331  146.3379  157.7707 O.2     1  UNL1       -0.2748
     32 N         141.7154  145.1095  159.9446 N.am    1  UNL1       -0.2842
     33 H         142.4024  145.6018  160.4496 H       1  UNL1        0.1548
@<TRIPOS>BOND
     1    17    18    1
     2    18    11    1
     3    11    12   ar
     4    12    13   ar
     5    13    14   ar
     6    14    15   ar
     7    15     3    1
     8     3     4    1
     9     3     5    1
    10     5     6    1
    11     6     7    1
    12     7     1    1
    13     1     2    1
    14     1    19    1
    15    19    20    1
    16    19    22    1
    17    22    23   ar
    18    23    24   ar
    19    24    25   ar
    20    25    26   ar
    21    26    27   ar
    22    26    28    1
    23    28    29    1
    24    29    30    1
    25    30    31    2
    26    30    32   am
    27     7     8    1
    28     8     9    1
    29    15    16   ar
    30    16    11   ar
    31     9     3    1
    32    27    22   ar
    33    32    25    1
    34     4    10    1
    35    20    21    1
    36    32    33    1
@<TRIPOS>MOLECULE
*****
 33 36 0 0 0
SMALL
GASTEIGER

@<TRIPOS>ATOM
      1 C         138.8965  138.7310  164.3186 C.3     1  UNL1        0.0888
      2 C         139.1560  137.3734  163.7357 C.3     1  UNL1        0.0203
      3 C         138.4002  142.2868  161.6056 C.3     1  UNL1        0.1097
      4 O         137.6714  143.5967  161.5498 O.3     1  UNL1       -0.3826
      5 C         139.2940  141.1526  161.1996 C.3     1  UNL1        0.0485
      6 C         139.4594  139.9674  162.1039 C.3     1  UNL1        0.0749
      7 N         138.7310  139.9163  163.4142 N.3     1  UNL1       -0.2713
      8 C         137.8372  141.0504  163.8202 C.3     1  UNL1        0.0749
      9 C         137.6718  142.2357  162.9159 C.3     1  UNL1        0.0485
     10 H         137.8869  144.0515  160.7206 H       1  UNL1        0.2107
     11 C         140.2789  144.4754  158.8797 C.ar    1  UNL1        0.1385
     12 C         139.8261  143.8050  157.6166 C.ar    1  UNL1        0.0369
     13 C         138.8978  142.6284  157.6831 C.ar    1  UNL1        0.0029
     14 C         138.4226  142.1225  159.0128 C.ar    1  UNL1       -0.0018
     15 C         138.8754  142.7928  160.2759 C.ar    1  UNL1        0.0048
     16 C         139.8036  143.9693  160.2094 C.ar    1  UNL1        0.0349
     17 C         142.0988  145.8371  157.6213 C.3     1  UNL1        0.2525
     18 O         141.2071  145.6518  158.8131 O.3     1  UNL1       -0.4714
     19 C         138.8024  138.9033  165.8056 C.3     1  UNL1        0.1472
     20 O         137.6133  138.3705  166.5487 O.3     1  UNL1       -0.3787
     21 H         137.7093  138.5645  167.4942 H       1  UNL1        0.2108
     22 C         139.8975  139.6084  166.5497 C.ar    1  UNL1        0.0053
     23 C         141.3323  139.2770  166.2641 C.ar    1  UNL1       -0.0007
     24 C         142.4273  139.9821  167.0082 C.ar    1  UNL1        0.0141
     25 C         142.0876  141.0186  168.0379 C.ar    1  UNL1        0.0462
     26 C         140.6529  141.3499  168.3235 C.ar    1  UNL1       -0.0085
     27 C         139.5578  140.6449  167.5795 C.ar    1  UNL1       -0.0049
     28 C         140.3131  142.3864  169.3533 C.3     1  UNL1        0.0372
     29 C         141.4082  143.0915  170.0974 C.3     1  UNL1        0.0901
     30 C         142.8430  142.7601  169.8117 C.2     1  UNL1        0.2264
     31 O         143.9380  143.4652  170.5558 O.2     1  UNL1       -0.2748
     32 N         143.1827  141.7237  168.7820 N.am    1  UNL1       -0.2842
     33 H         144.1244  141.5062  168.5945 H       1  UNL1        0.1548
@<TRIPOS>BOND
     1    17    18    1
     2    18    11    1
     3    11    12   ar
     4    12    13   ar
     5    13    14   ar
     6    14    15   ar
     7    15     3    1
     8     3     4    1
     9     3     5    1
    10     5     6    1
    11     6     7    1
    12     7     1    1
    13     1     2    1
    14     1    19    1
    15    19    20    1
    16    19    22    1
    17    22    23   ar
    18    23    24   ar
    19    24    25   ar
    20    25    26   ar
    21    26    27   ar
    22    26    28    1
    23    28    29    1
    24    29    30    1
    25    30    31    2
    26    30    32   am
    27     7     8    1
    28     8     9    1
    29    15    16   ar
    30    16    11   ar
    31     9     3    1
    32    27    22   ar
    33    32    25    1
    34     4    10    1
    35    20    21    1
    36    32    33    1
@<TRIPOS>MOLECULE
*****
 33 36 0 0 0
SMALL
GASTEIGER

@<TRIPOS>ATOM
      1 C         144.4342  142.8397  164.1220 C.3     1  UNL1        0.0888
      2 C         145.5153  141.9629  163.5627 C.3     1  UNL1        0.0203
      3 C         141.4494  144.7695  161.3622 C.3     1  UNL1        0.1097
      4 O         140.4922  145.9241  161.3311 O.3     1  UNL1       -0.3826
      5 C         142.2095  143.5563  160.9146 C.3     1  UNL1        0.0485
      6 C         143.2045  142.9130  161.8345 C.3     1  UNL1        0.0749
      7 N         143.4393  143.4829  163.2021 N.3     1  UNL1       -0.2713
      8 C         142.6791  144.6961  163.6496 C.3     1  UNL1        0.0749
      9 C         141.6842  145.3394  162.7297 C.3     1  UNL1        0.0485
     10 H         140.0376  145.9442  160.4745 H       1  UNL1        0.2107
     11 C         139.2665  143.3902  158.3485 C.ar    1  UNL1        0.1385
     12 C         139.7477  144.2626  157.2273 C.ar    1  UNL1        0.0369
     13 C         140.7962  145.3041  157.4844 C.ar    1  UNL1        0.0029
     14 C         141.3634  145.4730  158.8627 C.ar    1  UNL1       -0.0018
     15 C         140.8822  144.6006  159.9839 C.ar    1  UNL1        0.0048
     16 C         139.8337  143.5591  159.7268 C.ar    1  UNL1        0.0349
     17 C         137.3165  142.4705  156.8987 C.3     1  UNL1        0.2525
     18 O         138.2180  142.3487  158.0914 O.3     1  UNL1       -0.4714
     19 C         144.3482  143.0730  165.6012 C.3     1  UNL1        0.1472
     20 O         145.2426  144.0848  166.2542 O.3     1  UNL1       -0.3787
     21 H         145.0600  144.1110  167.2064 H       1  UNL1        0.2108
     22 C         143.3676  142.2947  166.4275 C.ar    1  UNL1        0.0053
     23 C         142.4309  141.3275  165.7664 C.ar    1  UNL1       -0.0007
     24 C         141.4504  140.5492  166.5928 C.ar    1  UNL1        0.0141
     25 C         141.4067  140.7380  168.0802 C.ar    1  UNL1        0.0462
     26 C         142.3435  141.7051  168.7413 C.ar    1  UNL1       -0.0085
     27 C         143.3239  142.4835  167.9150 C.ar    1  UNL1       -0.0049
     28 C         142.2998  141.8940  170.2287 C.3     1  UNL1        0.0372
     29 C         141.3193  141.1156  171.0551 C.3     1  UNL1        0.0901
     30 C         140.3825  140.1485  170.3940 C.2     1  UNL1        0.2264
     31 O         139.4020  139.3701  171.2203 O.2     1  UNL1       -0.2748
     32 N         140.4262  139.9596  168.9065 N.am    1  UNL1       -0.2842
     33 H         139.8113  139.3249  168.4726 H       1  UNL1        0.1548
@<TRIPOS>BOND
     1    17    18    1
     2    18    11    1
     3    11    12   ar
     4    12    13   ar
     5    13    14   ar
     6    14    15   ar
     7    15     3    1
     8     3     4    1
     9     3     5    1
    10     5     6    1
    11     6     7    1
    12     7     1    1
    13     1     2    1
    14     1    19    1
    15    19    20    1
    16    19    22    1
    17    22    23   ar
    18    23    24   ar
    19    24    25   ar
    20    25    26   ar
    21    26    27   ar
    22    26    28    1
    23    28    29    1
    24    29    30    1
    25    30    31    2
    26    30    32   am
    27     7     8    1
    28     8     9    1
    29    15    16   ar
    30    16    11   ar
    31     9     3    1
    32    27    22   ar
    33    32    25    1
    34     4    10    1
    35    20    21    1
    36    32    33    1
@<TRIPOS>MOLECULE
*****
 33 36 0 0 0
SMALL
GASTEIGER

@<TRIPOS>ATOM
      1 C         144.2499  140.1242  162.8968 C.3     1  UNL1        0.0888
      2 C         144.0839  138.9682  161.9553 C.3     1  UNL1        0.0203
      3 C         143.0246  139.7094  167.2069 C.3     1  UNL1        0.1097
      4 O         143.0933  138.7182  168.3308 O.3     1  UNL1       -0.3826
      5 C         142.7148  140.9712  166.4572 C.3     1  UNL1        0.0485
      6 C         143.1233  141.1094  165.0205 C.3     1  UNL1        0.0749
      7 N         143.8415  139.9859  164.3335 N.3     1  UNL1       -0.2713
      8 C         144.1512  138.7242  165.0832 C.3     1  UNL1        0.0749
      9 C         143.7428  138.5859  166.5199 C.3     1  UNL1        0.0485
     10 H         142.6708  139.0936  169.1191 H       1  UNL1        0.2107
     11 C         140.5095  140.6441  170.1310 C.ar    1  UNL1        0.1385
     12 C         140.9415  142.0472  170.4389 C.ar    1  UNL1        0.0369
     13 C         142.0680  142.6710  169.6693 C.ar    1  UNL1        0.0029
     14 C         142.7623  141.8917  168.5921 C.ar    1  UNL1       -0.0018
     15 C         142.3303  140.4887  168.2842 C.ar    1  UNL1        0.0048
     16 C         141.2039  139.8648  169.0537 C.ar    1  UNL1        0.0349
     17 C         138.0236  139.9033  170.2775 C.3     1  UNL1        0.2525
     18 O         139.3831  140.0203  170.9005 O.3     1  UNL1       -0.4714
     19 C         144.8243  141.4183  162.4016 C.3     1  UNL1        0.1472
     20 O         146.1302  141.9163  162.9461 O.3     1  UNL1       -0.3787
     21 H         146.3565  142.7594  162.5232 H       1  UNL1        0.2108
     22 C         144.0928  142.2144  161.3618 C.ar    1  UNL1        0.0053
     23 C         144.5171  142.1408  159.9250 C.ar    1  UNL1       -0.0007
     24 C         143.7856  142.9370  158.8853 C.ar    1  UNL1        0.0141
     25 C         142.6298  143.8067  159.2824 C.ar    1  UNL1        0.0462
     26 C         142.2055  143.8803  160.7192 C.ar    1  UNL1       -0.0085
     27 C         142.9370  143.0841  161.7589 C.ar    1  UNL1       -0.0049
     28 C         141.0497  144.7500  161.1163 C.3     1  UNL1        0.0372
     29 C         140.3182  145.5461  160.0766 C.3     1  UNL1        0.0901
     30 C         140.7425  145.4725  158.6397 C.2     1  UNL1        0.2264
     31 O         140.0110  146.2687  157.6000 O.2     1  UNL1       -0.2748
     32 N         141.8983  144.6028  158.2426 N.am    1  UNL1       -0.2842
     33 H         142.1768  144.5545  157.2996 H       1  UNL1        0.1548
@<TRIPOS>BOND
     1    17    18    1
     2    18    11    1
     3    11    12   ar
     4    12    13   ar
     5    13    14   ar
     6    14    15   ar
     7    15     3    1
     8     3     4    1
     9     3     5    1
    10     5     6    1
    11     6     7    1
    12     7     1    1
    13     1     2    1
    14     1    19    1
    15    19    20    1
    16    19    22    1
    17    22    23   ar
    18    23    24   ar
    19    24    25   ar
    20    25    26   ar
    21    26    27   ar
    22    26    28    1
    23    28    29    1
    24    29    30    1
    25    30    31    2
    26    30    32   am
    27     7     8    1
    28     8     9    1
    29    15    16   ar
    30    16    11   ar
    31     9     3    1
    32    27    22   ar
    33    32    25    1
    34     4    10    1
    35    20    21    1
    36    32    33    1
@<TRIPOS>MOLECULE
*****
 33 36 0 0 0
SMALL
GASTEIGER

@<TRIPOS>ATOM
      1 C         138.5607  139.7607  163.1245 C.3     1  UNL1        0.0888
      2 C         138.1346  138.5103  162.4138 C.3     1  UNL1        0.0203
      3 C         141.4984  139.5260  166.5251 C.3     1  UNL1        0.1097
      4 O         142.9184  139.1221  166.7912 O.3     1  UNL1       -0.3826
      5 C         140.1064  140.0286  166.7699 C.3     1  UNL1        0.0485
      6 C         139.1272  140.1068  165.6363 C.3     1  UNL1        0.0749
      7 N         139.5399  139.6825  164.2580 N.3     1  UNL1       -0.2713
      8 C         140.9319  139.1799  164.0133 C.3     1  UNL1        0.0749
      9 C         141.9111  139.1017  165.1469 C.3     1  UNL1        0.0485
     10 H         143.1216  139.2543  167.7304 H       1  UNL1        0.2107
     11 C         140.6625  141.0130  170.1085 C.ar    1  UNL1        0.1385
     12 C         141.7397  140.3783  170.9371 C.ar    1  UNL1        0.0369
     13 C         142.7366  139.4594  170.2951 C.ar    1  UNL1        0.0029
     14 C         142.6561  139.1754  168.8244 C.ar    1  UNL1       -0.0018
     15 C         141.5789  139.8101  167.9958 C.ar    1  UNL1        0.0048
     16 C         140.5821  140.7289  168.6378 C.ar    1  UNL1        0.0349
     17 C         139.8188  143.4177  170.6138 C.3     1  UNL1        0.2525
     18 O         139.6657  141.9318  170.7504 O.3     1  UNL1       -0.4714
     19 C         138.0075  141.0892  162.7016 C.3     1  UNL1        0.1472
     20 O         136.5609  141.4087  162.9372 O.3     1  UNL1       -0.3787
     21 H         136.3689  142.3004  162.6074 H       1  UNL1        0.2108
     22 C         138.9008  142.0984  162.0430 C.ar    1  UNL1        0.0053
     23 C         139.8099  142.9522  162.8763 C.ar    1  UNL1       -0.0007
     24 C         140.7032  143.9613  162.2178 C.ar    1  UNL1        0.0141
     25 C         140.6873  144.1166  160.7259 C.ar    1  UNL1        0.0462
     26 C         139.7782  143.2628  159.8926 C.ar    1  UNL1       -0.0085
     27 C         138.8849  142.2537  160.5512 C.ar    1  UNL1       -0.0049
     28 C         139.7623  143.4181  158.4008 C.3     1  UNL1        0.0372
     29 C         140.6555  144.4272  157.7422 C.3     1  UNL1        0.0901
     30 C         141.5647  145.2811  158.5755 C.2     1  UNL1        0.2264
     31 O         142.4580  146.2902  157.9169 O.2     1  UNL1       -0.2748
     32 N         141.5806  145.1258  160.0674 N.am    1  UNL1       -0.2842
     33 H         142.1773  145.6862  160.6143 H       1  UNL1        0.1548
@<TRIPOS>BOND
     1    17    18    1
     2    18    11    1
     3    11    12   ar
     4    12    13   ar
     5    13    14   ar
     6    14    15   ar
     7    15     3    1
     8     3     4    1
     9     3     5    1
    10     5     6    1
    11     6     7    1
    12     7     1    1
    13     1     2    1
    14     1    19    1
    15    19    20    1
    16    19    22    1
    17    22    23   ar
    18    23    24   ar
    19    24    25   ar
    20    25    26   ar
    21    26    27   ar
    22    26    28    1
    23    28    29    1
    24    29    30    1
    25    30    31    2
    26    30    32   am
    27     7     8    1
    28     8     9    1
    29    15    16   ar
    30    16    11   ar
    31     9     3    1
    32    27    22   ar
    33    32    25    1
    34     4    10    1
    35    20    21    1
    36    32    33    1
