@<TRIPOS>MOLECULE
*****
 40 45 0 0 0
SMALL
GASTEIGER

@<TRIPOS>ATOM
      1 C         140.3505  145.4350  158.1967 C.3     1  UNL1        0.0294
      2 C         140.1586  144.2625  157.2810 C.3     1  UNL1        0.0666
      3 S         139.1602  143.1974  157.6255 S.3     1  UNL1       -0.0756
      4 C         139.7526  141.2373  160.9228 C.ar    1  UNL1        0.1669
      5 N         138.5521  142.0600  161.2863 N.ar    1  UNL1       -0.1282
      6 N         138.1842  142.8944  160.0954 N.ar    1  UNL1       -0.1221
      7 C         139.1572  142.5873  158.9958 C.ar    1  UNL1        0.1932
      8 N         140.1264  141.5632  159.5072 N.ar    1  UNL1       -0.2884
      9 C         141.2691  140.9692  158.7380 C.3     1  UNL1        0.1340
     10 C         138.3233  139.1570  167.3166 C.3     1  UNL1        0.0521
     11 C         138.8563  139.4328  165.9419 C.ar    1  UNL1        0.0593
     12 C         138.1533  140.4099  165.0469 C.ar    1  UNL1        0.0147
     13 C         138.6864  140.6857  163.6722 C.ar    1  UNL1        0.0028
     14 C         139.9226  139.9844  163.1925 C.ar    1  UNL1        0.0206
     15 C         140.4556  140.2602  161.8178 C.ar    1  UNL1        0.0374
     16 C         141.6918  139.5589  161.3382 C.ar    1  UNL1        0.0031
     17 C         142.3948  138.5818  162.2331 C.ar    1  UNL1        0.0016
     18 C         141.8618  138.3060  163.6077 C.ar    1  UNL1        0.0191
     19 C         140.6256  139.0073  164.0875 C.ar    1  UNL1        0.0810
     20 N         140.0925  138.7315  165.4622 N.ar    1  UNL1       -0.2497
     21 C         141.5396  145.4870  159.1095 C.3     1  UNL1        0.0730
     22 N         141.4537  144.9003  160.4873 N.3     1  UNL1       -0.2720
     23 C         142.5095  143.8920  160.8322 C.3     1  UNL1        0.0768
     24 C         142.6957  143.1338  162.1131 C.3     1  UNL1        0.0434
     25 C         141.8723  143.1966  163.3652 C.ar    1  UNL1       -0.0233
     26 C         142.4046  142.2702  164.4181 C.ar    1  UNL1        0.0178
     27 C         141.7237  142.1803  165.7517 C.ar    1  UNL1        0.1179
     28 N         142.0169  141.3638  166.9753 N.ar    1  UNL1       -0.2121
     29 C         140.9851  141.6956  168.0122 C.ar    1  UNL1        0.2047
     30 O         140.0542  142.7172  167.4294 O.2     1  UNL1       -0.4388
     31 C         140.5106  143.0167  166.0324 C.ar    1  UNL1        0.1600
     32 C         139.9784  143.9431  164.9795 C.ar    1  UNL1        0.0101
     33 C         138.7654  144.7796  165.2602 C.3     1  UNL1        0.0339
     34 C         140.6592  144.0331  163.6460 C.ar    1  UNL1       -0.0256
     35 C         139.9700  145.0134  162.7437 C.3     1  UNL1        0.0431
     36 C         140.3236  145.3993  161.3380 C.3     1  UNL1        0.0768
     37 C         140.8993  141.1088  169.3900 C.3     1  UNL1        0.0688
     38 C         140.1204  142.3050  169.8510 C.3     1  UNL1        0.0092
     39 C         141.6782  139.9126  168.9291 C.3     1  UNL1        0.0092
     40 C         140.8135  140.5220  170.7678 C.3     1  UNL1        0.0092
@<TRIPOS>BOND
     1    10    11    1
     2    11    12   ar
     3    12    13   ar
     4    13    14   ar
     5    14    15   ar
     6    15     4    1
     7     4     5   ar
     8     5     6   ar
     9     6     7   ar
    10     7     3    1
    11     3     2    1
    12     2     1    1
    13     1    21    1
    14    21    22    1
    15    22    23    1
    16    23    24    1
    17    24    25    1
    18    25    26   ar
    19    26    27   ar
    20    27    28   ar
    21    28    29   ar
    22    29    37    1
    23    37    38    1
    24    37    39    1
    25    37    40    1
    26    29    30   ar
    27    30    31   ar
    28    31    32   ar
    29    32    33    1
    30    32    34   ar
    31    34    35    1
    32    35    36    1
    33     7     8   ar
    34     8     9    1
    35    15    16   ar
    36    16    17   ar
    37    17    18   ar
    38    18    19   ar
    39    19    20   ar
    40    20    11   ar
    41    19    14   ar
    42     8     4   ar
    43    36    22    1
    44    34    25   ar
    45    31    27   ar
@<TRIPOS>MOLECULE
*****
 40 45 0 0 0
SMALL
GASTEIGER

@<TRIPOS>ATOM
      1 C         142.8917  142.2181  157.5226 C.3     1  UNL1        0.0294
      2 C         143.0505  141.1101  156.5239 C.3     1  UNL1        0.0666
      3 S         142.2914  139.8284  156.6987 S.3     1  UNL1       -0.0756
      4 C         141.4759  138.4704  160.2423 C.ar    1  UNL1        0.1669
      5 N         142.8121  137.8373  159.9896 N.ar    1  UNL1       -0.1282
      6 N         143.2802  138.2689  158.6315 N.ar    1  UNL1       -0.1221
      7 C         142.2333  139.1688  158.0447 C.ar    1  UNL1        0.1932
      8 N         141.1182  139.2933  159.0402 N.ar    1  UNL1       -0.2884
      9 C         139.8653  140.0992  158.8646 C.3     1  UNL1        0.1340
     10 C         143.1849  138.8123  166.8915 C.3     1  UNL1        0.0521
     11 C         142.5496  138.6865  165.5385 C.ar    1  UNL1        0.0593
     12 C         143.3820  138.8480  164.3011 C.ar    1  UNL1        0.0147
     13 C         142.7466  138.7221  162.9482 C.ar    1  UNL1        0.0028
     14 C         141.2789  138.4347  162.8326 C.ar    1  UNL1        0.0206
     15 C         140.6436  138.3089  161.4796 C.ar    1  UNL1        0.0374
     16 C         139.1759  138.0215  161.3641 C.ar    1  UNL1        0.0031
     17 C         138.3436  137.8600  162.6015 C.ar    1  UNL1        0.0016
     18 C         138.9789  137.9859  163.9544 C.ar    1  UNL1        0.0191
     19 C         140.4466  138.2732  164.0700 C.ar    1  UNL1        0.0810
     20 N         141.0819  138.3991  165.4230 N.ar    1  UNL1       -0.2497
     21 C         143.9822  142.4960  158.5143 C.3     1  UNL1        0.0730
     22 N         143.6871  142.4559  159.9844 N.3     1  UNL1       -0.2720
     23 C         144.8731  142.6061  160.8905 C.3     1  UNL1        0.0768
     24 C         144.9100  142.6084  162.3901 C.3     1  UNL1        0.0434
     25 C         143.7701  142.4611  163.3538 C.ar    1  UNL1       -0.0233
     26 C         144.2438  142.5194  164.7759 C.ar    1  UNL1        0.0178
     27 C         143.2591  142.3917  165.9003 C.ar    1  UNL1        0.1179
     28 N         143.4292  142.4110  167.3904 N.ar    1  UNL1       -0.2121
     29 C         142.0759  142.2370  168.0137 C.ar    1  UNL1        0.2047
     30 O         141.0696  142.1101  166.9088 O.2     1  UNL1       -0.4388
     31 C         141.8008  142.2057  165.6026 C.ar    1  UNL1        0.1600
     32 C         141.3271  142.1474  164.1805 C.ar    1  UNL1        0.0101
     33 C         139.8688  141.9614  163.8828 C.3     1  UNL1        0.0339
     34 C         142.3117  142.2751  163.0562 C.ar    1  UNL1       -0.0256
     35 C         141.6331  142.1905  161.7212 C.3     1  UNL1        0.0431
     36 C         142.2453  142.2709  160.3541 C.3     1  UNL1        0.0768
     37 C         141.7810  142.1969  169.4839 C.3     1  UNL1        0.0688
     38 C         143.0637  141.4564  169.7211 C.3     1  UNL1        0.0092
     39 C         140.4983  142.9374  169.2468 C.3     1  UNL1        0.0092
     40 C         141.4861  142.1568  170.9541 C.3     1  UNL1        0.0092
@<TRIPOS>BOND
     1    10    11    1
     2    11    12   ar
     3    12    13   ar
     4    13    14   ar
     5    14    15   ar
     6    15     4    1
     7     4     5   ar
     8     5     6   ar
     9     6     7   ar
    10     7     3    1
    11     3     2    1
    12     2     1    1
    13     1    21    1
    14    21    22    1
    15    22    23    1
    16    23    24    1
    17    24    25    1
    18    25    26   ar
    19    26    27   ar
    20    27    28   ar
    21    28    29   ar
    22    29    37    1
    23    37    38    1
    24    37    39    1
    25    37    40    1
    26    29    30   ar
    27    30    31   ar
    28    31    32   ar
    29    32    33    1
    30    32    34   ar
    31    34    35    1
    32    35    36    1
    33     7     8   ar
    34     8     9    1
    35    15    16   ar
    36    16    17   ar
    37    17    18   ar
    38    18    19   ar
    39    19    20   ar
    40    20    11   ar
    41    19    14   ar
    42     8     4   ar
    43    36    22    1
    44    34    25   ar
    45    31    27   ar
@<TRIPOS>MOLECULE
*****
 40 45 0 0 0
SMALL
GASTEIGER

@<TRIPOS>ATOM
      1 C         139.5126  140.2840  168.3841 C.3     1  UNL1        0.0294
      2 C         140.5966  139.9106  169.3515 C.3     1  UNL1        0.0666
      3 S         142.0110  139.7656  168.8736 S.3     1  UNL1       -0.0756
      4 C         143.4334  142.0460  166.0733 C.ar    1  UNL1        0.1669
      5 N         143.6989  142.8817  167.2904 N.ar    1  UNL1       -0.1282
      6 N         143.1983  142.1291  168.4875 N.ar    1  UNL1       -0.1221
      7 C         142.6235  140.8284  168.0103 C.ar    1  UNL1        0.1932
      8 N         142.7688  140.7771  166.5183 N.ar    1  UNL1       -0.2884
      9 C         142.3270  139.6539  165.6275 C.3     1  UNL1        0.1340
     10 C         140.1302  146.0226  161.5427 C.3     1  UNL1        0.0521
     11 C         141.0408  145.1206  162.3219 C.ar    1  UNL1        0.0593
     12 C         140.7013  144.7520  163.7357 C.ar    1  UNL1        0.0147
     13 C         141.6120  143.8500  164.5149 C.ar    1  UNL1        0.0028
     14 C         142.8622  143.3167  163.8803 C.ar    1  UNL1        0.0206
     15 C         143.7728  142.4147  164.6596 C.ar    1  UNL1        0.0374
     16 C         145.0229  141.8814  164.0249 C.ar    1  UNL1        0.0031
     17 C         145.3624  142.2501  162.6111 C.ar    1  UNL1        0.0016
     18 C         144.4518  143.1520  161.8319 C.ar    1  UNL1        0.0191
     19 C         143.2017  143.6853  162.4665 C.ar    1  UNL1        0.0810
     20 N         142.2910  144.5873  161.6873 N.ar    1  UNL1       -0.2497
     21 C         138.8978  139.2353  167.5054 C.3     1  UNL1        0.0730
     22 N         138.8037  139.4582  166.0250 N.3     1  UNL1       -0.2720
     23 C         138.9998  138.2413  165.1700 C.3     1  UNL1        0.0768
     24 C         138.9665  138.1342  163.6741 C.3     1  UNL1        0.0434
     25 C         138.7291  139.2172  162.6640 C.ar    1  UNL1       -0.0233
     26 C         138.7791  138.6813  161.2638 C.ar    1  UNL1        0.0178
     27 C         138.5662  139.6031  160.0999 C.ar    1  UNL1        0.1179
     28 N         138.5580  139.3645  158.6190 N.ar    1  UNL1       -0.2121
     29 C         138.2900  140.6748  157.9398 C.ar    1  UNL1        0.2047
     30 O         138.1326  141.7232  159.0010 O.2     1  UNL1       -0.4388
     31 C         138.3033  141.0609  160.3359 C.ar    1  UNL1        0.1600
     32 C         138.2533  141.5969  161.7360 C.ar    1  UNL1        0.0101
     33 C         137.9905  143.0546  161.9721 C.3     1  UNL1        0.0339
     34 C         138.4662  140.6750  162.9000 C.ar    1  UNL1       -0.0256
     35 C         138.3759  141.4098  164.2046 C.3     1  UNL1        0.0431
     36 C         138.5261  140.8682  165.5953 C.3     1  UNL1        0.0768
     37 C         138.1959  140.8976  156.4594 C.3     1  UNL1        0.0688
     38 C         139.6871  140.7793  156.3469 C.3     1  UNL1        0.0092
     39 C         136.7049  141.0158  156.5719 C.3     1  UNL1        0.0092
     40 C         138.1020  141.1203  154.9791 C.3     1  UNL1        0.0092
@<TRIPOS>BOND
     1    10    11    1
     2    11    12   ar
     3    12    13   ar
     4    13    14   ar
     5    14    15   ar
     6    15     4    1
     7     4     5   ar
     8     5     6   ar
     9     6     7   ar
    10     7     3    1
    11     3     2    1
    12     2     1    1
    13     1    21    1
    14    21    22    1
    15    22    23    1
    16    23    24    1
    17    24    25    1
    18    25    26   ar
    19    26    27   ar
    20    27    28   ar
    21    28    29   ar
    22    29    37    1
    23    37    38    1
    24    37    39    1
    25    37    40    1
    26    29    30   ar
    27    30    31   ar
    28    31    32   ar
    29    32    33    1
    30    32    34   ar
    31    34    35    1
    32    35    36    1
    33     7     8   ar
    34     8     9    1
    35    15    16   ar
    36    16    17   ar
    37    17    18   ar
    38    18    19   ar
    39    19    20   ar
    40    20    11   ar
    41    19    14   ar
    42     8     4   ar
    43    36    22    1
    44    34    25   ar
    45    31    27   ar
@<TRIPOS>MOLECULE
*****
 40 45 0 0 0
SMALL
GASTEIGER

@<TRIPOS>ATOM
      1 C         139.7740  139.7481  157.4737 C.3     1  UNL1        0.0294
      2 C         140.8488  139.3482  156.5066 C.3     1  UNL1        0.0666
      3 S         142.2474  139.8593  156.6863 S.3     1  UNL1       -0.0756
      4 C         143.6137  140.5806  160.2470 C.ar    1  UNL1        0.1669
      5 N         144.0660  139.1648  160.0443 N.ar    1  UNL1       -0.1282
      6 N         143.6092  138.7224  158.6858 N.ar    1  UNL1       -0.1221
      7 C         142.8746  139.8646  158.0489 C.ar    1  UNL1        0.1932
      8 N         142.8775  141.0130  159.0138 N.ar    1  UNL1       -0.2884
      9 C         142.2535  142.3579  158.7856 C.3     1  UNL1        0.1340
     10 C         143.0033  139.0734  166.9258 C.3     1  UNL1        0.0521
     11 C         143.2163  139.6593  165.5614 C.ar    1  UNL1        0.0593
     12 C         142.9747  138.8228  164.3399 C.ar    1  UNL1        0.0147
     13 C         143.1877  139.4088  162.9757 C.ar    1  UNL1        0.0028
     14 C         143.6423  140.8311  162.8328 C.ar    1  UNL1        0.0206
     15 C         143.8553  141.4170  161.4684 C.ar    1  UNL1        0.0374
     16 C         144.3099  142.8392  161.3257 C.ar    1  UNL1        0.0031
     17 C         144.5516  143.6756  162.5472 C.ar    1  UNL1        0.0016
     18 C         144.3386  143.0898  163.9115 C.ar    1  UNL1        0.0191
     19 C         143.8839  141.6675  164.0543 C.ar    1  UNL1        0.0810
     20 N         143.6709  141.0816  165.4187 N.ar    1  UNL1       -0.2497
     21 C         139.3293  138.7903  158.5389 C.3     1  UNL1        0.0730
     22 N         139.4250  139.1790  159.9845 N.3     1  UNL1       -0.2720
     23 C         139.8242  140.6002  160.2512 C.3     1  UNL1        0.0768
     24 C         140.0058  141.2886  161.5715 C.3     1  UNL1        0.0434
     25 C         139.8330  140.7258  162.9511 C.ar    1  UNL1       -0.0233
     26 C         140.1144  141.7576  164.0030 C.ar    1  UNL1        0.0178
     27 C         139.9987  141.3993  165.4549 C.ar    1  UNL1        0.1179
     28 N         140.2123  142.1986  166.7061 N.ar    1  UNL1       -0.2121
     29 C         139.9474  141.3025  167.8795 C.ar    1  UNL1        0.2047
     30 O         139.5700  139.9495  167.3535 O.2     1  UNL1       -0.4388
     31 C         139.6017  140.0092  165.8551 C.ar    1  UNL1        0.1600
     32 C         139.3203  138.9775  164.8033 C.ar    1  UNL1        0.0101
     33 C         138.9233  137.5875  165.2034 C.3     1  UNL1        0.0339
     34 C         139.4360  139.3358  163.3513 C.ar    1  UNL1       -0.0256
     35 C         139.1137  138.1651  162.4706 C.3     1  UNL1        0.0431
     36 C         139.1088  138.0954  160.9722 C.3     1  UNL1        0.0768
     37 C         140.0430  141.6914  169.3251 C.3     1  UNL1        0.0688
     38 C         139.3286  140.4303  169.7116 C.3     1  UNL1        0.0092
     39 C         140.7574  142.9524  168.9387 C.3     1  UNL1        0.0092
     40 C         140.1387  142.0802  170.7706 C.3     1  UNL1        0.0092
@<TRIPOS>BOND
     1    10    11    1
     2    11    12   ar
     3    12    13   ar
     4    13    14   ar
     5    14    15   ar
     6    15     4    1
     7     4     5   ar
     8     5     6   ar
     9     6     7   ar
    10     7     3    1
    11     3     2    1
    12     2     1    1
    13     1    21    1
    14    21    22    1
    15    22    23    1
    16    23    24    1
    17    24    25    1
    18    25    26   ar
    19    26    27   ar
    20    27    28   ar
    21    28    29   ar
    22    29    37    1
    23    37    38    1
    24    37    39    1
    25    37    40    1
    26    29    30   ar
    27    30    31   ar
    28    31    32   ar
    29    32    33    1
    30    32    34   ar
    31    34    35    1
    32    35    36    1
    33     7     8   ar
    34     8     9    1
    35    15    16   ar
    36    16    17   ar
    37    17    18   ar
    38    18    19   ar
    39    19    20   ar
    40    20    11   ar
    41    19    14   ar
    42     8     4   ar
    43    36    22    1
    44    34    25   ar
    45    31    27   ar
@<TRIPOS>MOLECULE
*****
 40 45 0 0 0
SMALL
GASTEIGER

@<TRIPOS>ATOM
      1 C         143.8411  140.8555  157.5697 C.3     1  UNL1        0.0294
      2 C         142.7288  140.9603  156.5686 C.3     1  UNL1        0.0666
      3 S         141.4463  140.2152  156.7919 S.3     1  UNL1       -0.0756
      4 C         139.8763  140.4988  160.3303 C.ar    1  UNL1        0.1669
      5 N         140.2987  139.0595  160.3151 N.ar    1  UNL1       -0.1282
      6 N         140.9382  138.7782  158.9878 N.ar    1  UNL1       -0.1221
      7 C         140.9111  140.0435  158.1826 C.ar    1  UNL1        0.1932
      8 N         140.2548  141.1068  159.0123 N.ar    1  UNL1       -0.2884
      9 C         140.0185  142.5287  158.5970 C.3     1  UNL1        0.1340
     10 C         138.0592  138.2768  166.5762 C.3     1  UNL1        0.0521
     11 C         138.3432  139.0091  165.2982 C.ar    1  UNL1        0.0593
     12 C         139.0244  138.3020  164.1642 C.ar    1  UNL1        0.0147
     13 C         139.3084  139.0343  162.8862 C.ar    1  UNL1        0.0028
     14 C         138.9111  140.4736  162.7423 C.ar    1  UNL1        0.0206
     15 C         139.1951  141.2058  161.4643 C.ar    1  UNL1        0.0374
     16 C         138.7978  142.6450  161.3204 C.ar    1  UNL1        0.0031
     17 C         138.1165  143.3520  162.4544 C.ar    1  UNL1        0.0016
     18 C         137.8326  142.6198  163.7323 C.ar    1  UNL1        0.0191
     19 C         138.2298  141.1806  163.8763 C.ar    1  UNL1        0.0810
     20 N         137.9458  140.4484  165.1543 N.ar    1  UNL1       -0.2497
     21 C         144.1232  141.9981  158.4996 C.3     1  UNL1        0.0730
     22 N         143.5869  141.9751  159.9003 N.3     1  UNL1       -0.2720
     23 C         143.6949  140.6617  160.6170 C.3     1  UNL1        0.0768
     24 C         143.2561  140.3174  162.0095 C.3     1  UNL1        0.0434
     25 C         142.6012  141.2012  163.0291 C.ar    1  UNL1       -0.0233
     26 C         142.3258  140.4579  164.3026 C.ar    1  UNL1        0.0178
     27 C         141.6723  141.1612  165.4552 C.ar    1  UNL1        0.1179
     28 N         141.2791  140.6923  166.8246 N.ar    1  UNL1       -0.2121
     29 C         140.6580  141.8490  167.5501 C.ar    1  UNL1        0.2047
     30 O         140.6674  143.0328  166.6290 O.2     1  UNL1       -0.4388
     31 C         141.2942  142.6077  165.3343 C.ar    1  UNL1        0.1600
     32 C         141.5697  143.3510  164.0608 C.ar    1  UNL1        0.0101
     33 C         141.1916  144.7975  163.9399 C.3     1  UNL1        0.0339
     34 C         142.2231  142.6477  162.9083 C.ar    1  UNL1       -0.0256
     35 C         142.4067  143.5677  161.7378 C.3     1  UNL1        0.0431
     36 C         143.0136  143.2682  160.3991 C.3     1  UNL1        0.0768
     37 C         140.1218  141.8258  168.9508 C.3     1  UNL1        0.0688
     38 C         140.4312  143.2867  169.0934 C.3     1  UNL1        0.0092
     39 C         139.8124  140.3651  168.8083 C.3     1  UNL1        0.0092
     40 C         139.5856  141.8028  170.3514 C.3     1  UNL1        0.0092
@<TRIPOS>BOND
     1    10    11    1
     2    11    12   ar
     3    12    13   ar
     4    13    14   ar
     5    14    15   ar
     6    15     4    1
     7     4     5   ar
     8     5     6   ar
     9     6     7   ar
    10     7     3    1
    11     3     2    1
    12     2     1    1
    13     1    21    1
    14    21    22    1
    15    22    23    1
    16    23    24    1
    17    24    25    1
    18    25    26   ar
    19    26    27   ar
    20    27    28   ar
    21    28    29   ar
    22    29    37    1
    23    37    38    1
    24    37    39    1
    25    37    40    1
    26    29    30   ar
    27    30    31   ar
    28    31    32   ar
    29    32    33    1
    30    32    34   ar
    31    34    35    1
    32    35    36    1
    33     7     8   ar
    34     8     9    1
    35    15    16   ar
    36    16    17   ar
    37    17    18   ar
    38    18    19   ar
    39    19    20   ar
    40    20    11   ar
    41    19    14   ar
    42     8     4   ar
    43    36    22    1
    44    34    25   ar
    45    31    27   ar
@<TRIPOS>MOLECULE
*****
 40 45 0 0 0
SMALL
GASTEIGER

@<TRIPOS>ATOM
      1 C         139.0476  142.1179  157.8030 C.3     1  UNL1        0.0294
      2 C         139.4435  143.5397  157.5349 C.3     1  UNL1        0.0666
      3 S         140.8814  143.9516  157.6469 S.3     1  UNL1       -0.0756
      4 C         142.7813  143.1249  160.9291 C.ar    1  UNL1        0.1669
      5 N         143.2950  142.0495  160.0180 N.ar    1  UNL1       -0.1282
      6 N         142.6458  142.2284  158.6777 N.ar    1  UNL1       -0.1221
      7 C         141.7309  143.4142  158.7603 C.ar    1  UNL1        0.1932
      8 N         141.8147  143.9682  160.1517 N.ar    1  UNL1       -0.2884
      9 C         141.0636  145.1570  160.6741 C.3     1  UNL1        0.1340
     10 C         142.7058  138.7703  166.2473 C.3     1  UNL1        0.0521
     11 C         142.8210  139.9083  165.2767 C.ar    1  UNL1        0.0593
     12 C         142.4357  139.7110  163.8405 C.ar    1  UNL1        0.0147
     13 C         142.5509  140.8490  162.8701 C.ar    1  UNL1        0.0028
     14 C         143.0514  142.1841  163.3357 C.ar    1  UNL1        0.0206
     15 C         143.1666  143.3221  162.3652 C.ar    1  UNL1        0.0374
     16 C         143.6671  144.6572  162.8310 C.ar    1  UNL1        0.0031
     17 C         144.0524  144.8544  164.2672 C.ar    1  UNL1        0.0016
     18 C         143.9372  143.7165  165.2376 C.ar    1  UNL1        0.0191
     19 C         143.4367  142.3814  164.7719 C.ar    1  UNL1        0.0810
     20 N         143.3215  141.2434  165.7425 N.ar    1  UNL1       -0.2497
     21 C         137.9231  141.8182  158.7493 C.3     1  UNL1        0.0730
     22 N         138.2066  141.5998  160.2060 N.3     1  UNL1       -0.2720
     23 C         137.8908  140.2310  160.7323 C.3     1  UNL1        0.0768
     24 C         138.0589  139.7034  162.1264 C.3     1  UNL1        0.0434
     25 C         138.5843  140.4141  163.3383 C.ar    1  UNL1       -0.0233
     26 C         138.5863  139.5179  164.5412 C.ar    1  UNL1        0.0178
     27 C         139.0754  140.0356  165.8613 C.ar    1  UNL1        0.1179
     28 N         139.1946  139.3910  167.2104 N.ar    1  UNL1       -0.2121
     29 C         139.7553  140.4064  168.1615 C.ar    1  UNL1        0.2047
     30 O         139.9827  141.6786  167.4002 O.2     1  UNL1       -0.4388
     31 C         139.5625  141.4495  165.9787 C.ar    1  UNL1        0.1600
     32 C         139.5604  142.3457  164.7757 C.ar    1  UNL1        0.0101
     33 C         140.0475  143.7595  164.8930 C.3     1  UNL1        0.0339
     34 C         139.0713  141.8280  163.4556 C.ar    1  UNL1       -0.0256
     35 C         139.1533  142.8804  162.3899 C.3     1  UNL1        0.0431
     36 C         138.7685  142.7787  160.9436 C.3     1  UNL1        0.0768
     37 C         140.0389  140.1878  169.6182 C.3     1  UNL1        0.0688
     38 C         141.5110  140.1790  169.3303 C.3     1  UNL1        0.0092
     39 C         138.5669  140.1966  169.9061 C.3     1  UNL1        0.0092
     40 C         140.3225  139.9693  171.0748 C.3     1  UNL1        0.0092
@<TRIPOS>BOND
     1    10    11    1
     2    11    12   ar
     3    12    13   ar
     4    13    14   ar
     5    14    15   ar
     6    15     4    1
     7     4     5   ar
     8     5     6   ar
     9     6     7   ar
    10     7     3    1
    11     3     2    1
    12     2     1    1
    13     1    21    1
    14    21    22    1
    15    22    23    1
    16    23    24    1
    17    24    25    1
    18    25    26   ar
    19    26    27   ar
    20    27    28   ar
    21    28    29   ar
    22    29    37    1
    23    37    38    1
    24    37    39    1
    25    37    40    1
    26    29    30   ar
    27    30    31   ar
    28    31    32   ar
    29    32    33    1
    30    32    34   ar
    31    34    35    1
    32    35    36    1
    33     7     8   ar
    34     8     9    1
    35    15    16   ar
    36    16    17   ar
    37    17    18   ar
    38    18    19   ar
    39    19    20   ar
    40    20    11   ar
    41    19    14   ar
    42     8     4   ar
    43    36    22    1
    44    34    25   ar
    45    31    27   ar
@<TRIPOS>MOLECULE
*****
 40 45 0 0 0
SMALL
GASTEIGER

@<TRIPOS>ATOM
      1 C         142.2182  143.4927  157.1865 C.3     1  UNL1        0.0294
      2 C         140.8741  143.5040  156.5203 C.3     1  UNL1        0.0666
      3 S         139.6597  143.9333  157.2889 S.3     1  UNL1       -0.0756
      4 C         139.2638  142.9881  161.0326 C.ar    1  UNL1        0.1669
      5 N         138.5903  141.8246  160.3671 N.ar    1  UNL1       -0.1282
      6 N         138.6566  142.0372  158.8837 N.ar    1  UNL1       -0.1221
      7 C         139.3712  143.3319  158.6325 C.ar    1  UNL1        0.1932
      8 N         139.7464  143.9195  159.9605 N.ar    1  UNL1       -0.2884
      9 C         140.4762  145.2119  160.1783 C.3     1  UNL1        0.1340
     10 C         138.2694  138.6669  166.2852 C.3     1  UNL1        0.0521
     11 C         138.5586  139.7965  165.3415 C.ar    1  UNL1        0.0593
     12 C         138.3962  139.5993  163.8635 C.ar    1  UNL1        0.0147
     13 C         138.6854  140.7289  162.9199 C.ar    1  UNL1        0.0028
     14 C         139.1370  142.0557  163.4543 C.ar    1  UNL1        0.0206
     15 C         139.4263  143.1853  162.5106 C.ar    1  UNL1        0.0374
     16 C         139.8779  144.5120  163.0452 C.ar    1  UNL1        0.0031
     17 C         140.0403  144.7092  164.5233 C.ar    1  UNL1        0.0016
     18 C         139.7511  143.5797  165.4668 C.ar    1  UNL1        0.0191
     19 C         139.2995  142.2529  164.9324 C.ar    1  UNL1        0.0810
     20 N         139.0103  141.1233  165.8761 N.ar    1  UNL1       -0.2497
     21 C         142.7484  142.2233  157.7841 C.3     1  UNL1        0.0730
     22 N         142.7559  142.0412  159.2730 N.3     1  UNL1       -0.2720
     23 C         142.2476  140.7201  159.7696 C.3     1  UNL1        0.0768
     24 C         142.1285  140.2357  161.1843 C.3     1  UNL1        0.0434
     25 C         142.4883  140.9527  162.4516 C.ar    1  UNL1       -0.0233
     26 C         142.2109  140.1057  163.6582 C.ar    1  UNL1        0.0178
     27 C         142.5013  140.6372  165.0305 C.ar    1  UNL1        0.1179
     28 N         142.3330  140.0380  166.3952 N.ar    1  UNL1       -0.2121
     29 C         142.7967  141.0461  167.4045 C.ar    1  UNL1        0.2047
     30 O         143.2515  142.2683  166.6636 O.2     1  UNL1       -0.4388
     31 C         143.0690  142.0156  165.1964 C.ar    1  UNL1        0.1600
     32 C         143.3464  142.8627  163.9898 C.ar    1  UNL1        0.0101
     33 C         143.9141  144.2411  164.1557 C.3     1  UNL1        0.0339
     34 C         143.0561  142.3312  162.6175 C.ar    1  UNL1       -0.0256
     35 C         143.4042  143.3331  161.5569 C.3     1  UNL1        0.0431
     36 C         143.2706  143.2040  160.0684 C.3     1  UNL1        0.0768
     37 C         142.8041  140.8638  168.8934 C.3     1  UNL1        0.0688
     38 C         142.3442  139.4464  168.7222 C.3     1  UNL1        0.0092
     39 C         143.2640  142.2812  169.0647 C.3     1  UNL1        0.0092
     40 C         142.8115  140.6815  170.3822 C.3     1  UNL1        0.0092
@<TRIPOS>BOND
     1    10    11    1
     2    11    12   ar
     3    12    13   ar
     4    13    14   ar
     5    14    15   ar
     6    15     4    1
     7     4     5   ar
     8     5     6   ar
     9     6     7   ar
    10     7     3    1
    11     3     2    1
    12     2     1    1
    13     1    21    1
    14    21    22    1
    15    22    23    1
    16    23    24    1
    17    24    25    1
    18    25    26   ar
    19    26    27   ar
    20    27    28   ar
    21    28    29   ar
    22    29    37    1
    23    37    38    1
    24    37    39    1
    25    37    40    1
    26    29    30   ar
    27    30    31   ar
    28    31    32   ar
    29    32    33    1
    30    32    34   ar
    31    34    35    1
    32    35    36    1
    33     7     8   ar
    34     8     9    1
    35    15    16   ar
    36    16    17   ar
    37    17    18   ar
    38    18    19   ar
    39    19    20   ar
    40    20    11   ar
    41    19    14   ar
    42     8     4   ar
    43    36    22    1
    44    34    25   ar
    45    31    27   ar
@<TRIPOS>MOLECULE
*****
 40 45 0 0 0
SMALL
GASTEIGER

@<TRIPOS>ATOM
      1 C         141.2300  144.6106  158.2408 C.3     1  UNL1        0.0294
      2 C         140.1582  143.8083  157.5643 C.3     1  UNL1        0.0666
      3 S         140.1016  142.3215  157.7543 S.3     1  UNL1       -0.0756
      4 C         140.4934  140.8984  161.3442 C.ar    1  UNL1        0.1669
      5 N         141.8678  140.6676  160.7892 N.ar    1  UNL1       -0.1282
      6 N         141.8882  141.1727  159.3770 N.ar    1  UNL1       -0.1221
      7 C         140.5265  141.7155  159.0590 C.ar    1  UNL1        0.1932
      8 N         139.6645  141.5460  160.2748 N.ar    1  UNL1       -0.2884
      9 C         138.2260  141.9527  160.3994 C.3     1  UNL1        0.1340
     10 C         143.8319  137.9972  166.6061 C.3     1  UNL1        0.0521
     11 C         142.8813  138.6338  165.6360 C.ar    1  UNL1        0.0593
     12 C         143.3452  138.9885  164.2543 C.ar    1  UNL1        0.0147
     13 C         142.3946  139.6251  163.2843 C.ar    1  UNL1        0.0028
     14 C         140.9800  139.9071  163.6958 C.ar    1  UNL1        0.0206
     15 C         140.0294  140.5438  162.7257 C.ar    1  UNL1        0.0374
     16 C         138.6149  140.8258  163.1374 C.ar    1  UNL1        0.0031
     17 C         138.1509  140.4712  164.5191 C.ar    1  UNL1        0.0016
     18 C         139.1014  139.8346  165.4891 C.ar    1  UNL1        0.0191
     19 C         140.5160  139.5525  165.0775 C.ar    1  UNL1        0.0810
     20 N         141.4666  138.9159  166.0476 N.ar    1  UNL1       -0.2497
     21 C         140.8881  145.4798  159.4145 C.3     1  UNL1        0.0730
     22 N         140.9953  144.9349  160.8079 N.3     1  UNL1       -0.2720
     23 C         139.7481  145.0187  161.6371 C.3     1  UNL1        0.0768
     24 C         139.5331  144.5665  163.0512 C.3     1  UNL1        0.0434
     25 C         140.5121  143.9190  163.9850 C.ar    1  UNL1       -0.0233
     26 C         139.8870  143.6247  165.3165 C.ar    1  UNL1        0.0178
     27 C         140.6977  142.9751  166.3985 C.ar    1  UNL1        0.1179
     28 N         140.3559  142.5667  167.8007 N.ar    1  UNL1       -0.2121
     29 C         141.5805  141.9589  168.4180 C.ar    1  UNL1        0.2047
     30 O         142.6790  141.9917  167.3972 O.2     1  UNL1       -0.4388
     31 C         142.1335  142.6197  166.1492 C.ar    1  UNL1        0.1600
     32 C         142.7586  142.9139  164.8177 C.ar    1  UNL1        0.0101
     33 C         144.1943  142.5585  164.5683 C.3     1  UNL1        0.0339
     34 C         141.9479  143.5635  163.7356 C.ar    1  UNL1       -0.0256
     35 C         142.7593  143.7680  162.4907 C.3     1  UNL1        0.0431
     36 C         142.3353  144.3783  161.1878 C.3     1  UNL1        0.0768
     37 C         141.6876  141.4140  169.8115 C.3     1  UNL1        0.0688
     38 C         142.9091  140.6390  169.4145 C.3     1  UNL1        0.0092
     39 C         140.4662  142.1889  170.2084 C.3     1  UNL1        0.0092
     40 C         141.7948  140.8691  171.2048 C.3     1  UNL1        0.0092
@<TRIPOS>BOND
     1    10    11    1
     2    11    12   ar
     3    12    13   ar
     4    13    14   ar
     5    14    15   ar
     6    15     4    1
     7     4     5   ar
     8     5     6   ar
     9     6     7   ar
    10     7     3    1
    11     3     2    1
    12     2     1    1
    13     1    21    1
    14    21    22    1
    15    22    23    1
    16    23    24    1
    17    24    25    1
    18    25    26   ar
    19    26    27   ar
    20    27    28   ar
    21    28    29   ar
    22    29    37    1
    23    37    38    1
    24    37    39    1
    25    37    40    1
    26    29    30   ar
    27    30    31   ar
    28    31    32   ar
    29    32    33    1
    30    32    34   ar
    31    34    35    1
    32    35    36    1
    33     7     8   ar
    34     8     9    1
    35    15    16   ar
    36    16    17   ar
    37    17    18   ar
    38    18    19   ar
    39    19    20   ar
    40    20    11   ar
    41    19    14   ar
    42     8     4   ar
    43    36    22    1
    44    34    25   ar
    45    31    27   ar
@<TRIPOS>MOLECULE
*****
 40 45 0 0 0
SMALL
GASTEIGER

@<TRIPOS>ATOM
      1 C         141.7468  137.9450  157.6755 C.3     1  UNL1        0.0294
      2 C         142.2215  138.8025  156.5399 C.3     1  UNL1        0.0666
      3 S         141.8575  140.2570  156.4954 S.3     1  UNL1       -0.0756
      4 C         141.7440  142.1578  159.8777 C.ar    1  UNL1        0.1669
      5 N         140.2830  142.0579  159.5521 N.ar    1  UNL1       -0.1282
      6 N         140.1479  141.3338  158.2455 N.ar    1  UNL1       -0.1221
      7 C         141.5251  140.9860  157.7635 C.ar    1  UNL1        0.1932
      8 N         142.5115  141.4953  158.7723 N.ar    1  UNL1       -0.2884
      9 C         144.0036  141.3649  158.6901 C.3     1  UNL1        0.1340
     10 C         138.7390  144.8796  165.4286 C.3     1  UNL1        0.0521
     11 C         139.6376  144.3612  164.3451 C.ar    1  UNL1        0.0593
     12 C         139.0479  143.7128  163.1279 C.ar    1  UNL1        0.0147
     13 C         139.9466  143.1945  162.0445 C.ar    1  UNL1        0.0028
     14 C         141.4350  143.3245  162.1783 C.ar    1  UNL1        0.0206
     15 C         142.3336  142.8062  161.0949 C.ar    1  UNL1        0.0374
     16 C         143.8219  142.9363  161.2289 C.ar    1  UNL1        0.0031
     17 C         144.4116  143.5848  162.4462 C.ar    1  UNL1        0.0016
     18 C         143.5130  144.1031  163.5295 C.ar    1  UNL1        0.0191
     19 C         142.0247  143.9730  163.3956 C.ar    1  UNL1        0.0810
     20 N         141.1260  144.4914  164.4791 N.ar    1  UNL1       -0.2497
     21 C         142.6885  137.5806  158.7847 C.3     1  UNL1        0.0730
     22 N         142.5724  138.2555  160.1193 N.3     1  UNL1       -0.2720
     23 C         143.8695  138.6092  160.7847 C.3     1  UNL1        0.0768
     24 C         144.0890  139.2821  162.1072 C.3     1  UNL1        0.0434
     25 C         143.0660  139.7675  163.0908 C.ar    1  UNL1       -0.0233
     26 C         143.7132  140.3858  164.2946 C.ar    1  UNL1        0.0178
     27 C         142.8650  140.9364  165.4024 C.ar    1  UNL1        0.1179
     28 N         143.2166  141.5990  166.7013 N.ar    1  UNL1       -0.2121
     29 C         141.9386  141.9410  167.4082 C.ar    1  UNL1        0.2047
     30 O         140.7971  141.4896  166.5462 O.2     1  UNL1       -0.4388
     31 C         141.3695  140.8688  165.3067 C.ar    1  UNL1        0.1600
     32 C         140.7223  140.2505  164.1029 C.ar    1  UNL1        0.0101
     33 C         139.2270  140.1830  164.0070 C.3     1  UNL1        0.0339
     34 C         141.5705  139.6999  162.9950 C.ar    1  UNL1       -0.0256
     35 C         140.7289  139.1302  161.8918 C.3     1  UNL1        0.0431
     36 C         141.1749  138.4874  160.6120 C.3     1  UNL1        0.0768
     37 C         141.8226  142.6158  168.7429 C.3     1  UNL1        0.0688
     38 C         143.2932  142.4236  168.9678 C.3     1  UNL1        0.0092
     39 C         140.3522  142.8080  168.5180 C.3     1  UNL1        0.0092
     40 C         141.7067  143.2906  170.0774 C.3     1  UNL1        0.0092
@<TRIPOS>BOND
     1    10    11    1
     2    11    12   ar
     3    12    13   ar
     4    13    14   ar
     5    14    15   ar
     6    15     4    1
     7     4     5   ar
     8     5     6   ar
     9     6     7   ar
    10     7     3    1
    11     3     2    1
    12     2     1    1
    13     1    21    1
    14    21    22    1
    15    22    23    1
    16    23    24    1
    17    24    25    1
    18    25    26   ar
    19    26    27   ar
    20    27    28   ar
    21    28    29   ar
    22    29    37    1
    23    37    38    1
    24    37    39    1
    25    37    40    1
    26    29    30   ar
    27    30    31   ar
    28    31    32   ar
    29    32    33    1
    30    32    34   ar
    31    34    35    1
    32    35    36    1
    33     7     8   ar
    34     8     9    1
    35    15    16   ar
    36    16    17   ar
    37    17    18   ar
    38    18    19   ar
    39    19    20   ar
    40    20    11   ar
    41    19    14   ar
    42     8     4   ar
    43    36    22    1
    44    34    25   ar
    45    31    27   ar
