@<TRIPOS>MOLECULE
*****
 25 28 0 0 0
SMALL
GASTEIGER

@<TRIPOS>ATOM
      1 C         143.1712  143.2510  170.6072 C.3     1  UNL1        0.0307
      2 C         142.4297  142.4894  169.5489 C.ar    1  UNL1       -0.0242
      3 C         143.0940  141.3435  168.8450 C.ar    1  UNL1        0.0160
      4 C         142.3525  140.5819  167.7867 C.ar    1  UNL1        0.0980
      5 N         142.7447  139.4157  166.9286 N.ar    1  UNL1       -0.2310
      6 C         141.5810  139.0792  166.0439 C.ar    1  UNL1        0.1205
      7 N         140.4697  140.0374  166.3553 N.ar    1  UNL1       -0.3107
      8 C         140.9465  140.9661  167.4324 C.ar    1  UNL1        0.0785
      9 C         140.2821  142.1119  168.1363 C.ar    1  UNL1        0.0142
     10 C         141.0237  142.8736  169.1946 C.ar    1  UNL1       -0.0243
     11 C         140.3592  144.0195  169.8985 C.3     1  UNL1        0.0307
     12 C         141.5365  137.9778  165.0265 C.3     1  UNL1        0.0639
     13 C         141.3470  138.3050  163.5749 C.3     1  UNL1        0.0075
     14 C         140.3542  137.6663  162.6495 C.3     1  UNL1        0.0004
     15 C         140.5106  138.2949  161.2965 C.3     1  UNL1        0.0000
     16 C         141.6001  139.3220  161.3858 C.3     1  UNL1        0.0000
     17 C         142.1170  139.3283  162.7939 C.3     1  UNL1        0.0004
     18 C         139.1188  140.0625  165.7039 C.3     1  UNL1        0.1339
     19 C         138.9483  140.6953  164.3547 C.ar    1  UNL1        0.0005
     20 C         139.8519  141.8156  163.9321 C.ar    1  UNL1       -0.0015
     21 C         139.6815  142.4485  162.5829 C.ar    1  UNL1        0.0111
     22 C         138.6074  141.9611  161.6561 C.ar    1  UNL1        0.0577
     23 CL        138.4370  142.5939  160.3069 Cl      1  UNL1       -0.0822
     24 C         137.7038  140.8408  162.0786 C.ar    1  UNL1        0.0111
     25 C         137.8743  140.2079  163.4279 C.ar    1  UNL1       -0.0015
@<TRIPOS>BOND
     1     1     2    1
     2     2     3   ar
     3     3     4   ar
     4     4     5   ar
     5     5     6   ar
     6     6    12    1
     7    12    13    1
     8    13    14    1
     9    14    15    1
    10    15    16    1
    11    16    17    1
    12     6     7   ar
    13     7    18    1
    14    18    19    1
    15    19    20   ar
    16    20    21   ar
    17    21    22   ar
    18    22    23    1
    19    22    24   ar
    20    24    25   ar
    21     7     8   ar
    22     8     9   ar
    23     9    10   ar
    24    10    11    1
    25    10     2   ar
    26     8     4   ar
    27    17    13    1
    28    25    19   ar
@<TRIPOS>MOLECULE
*****
 25 28 0 0 0
SMALL
GASTEIGER

@<TRIPOS>ATOM
      1 C         142.5786  143.1729  170.3649 C.3     1  UNL1        0.0307
      2 C         142.0646  142.2171  169.3294 C.ar    1  UNL1       -0.0242
      3 C         143.0016  141.6407  168.3098 C.ar    1  UNL1        0.0160
      4 C         142.4876  140.6849  167.2743 C.ar    1  UNL1        0.0980
      5 N         143.1684  139.9609  166.1507 N.ar    1  UNL1       -0.2310
      6 C         142.1380  139.1339  165.4405 C.ar    1  UNL1        0.1205
      7 N         140.8204  139.3469  166.1252 N.ar    1  UNL1       -0.3107
      8 C         141.0365  140.3054  167.2585 C.ar    1  UNL1        0.0785
      9 C         140.0995  140.8818  168.2782 C.ar    1  UNL1        0.0142
     10 C         140.6135  141.8376  169.3136 C.ar    1  UNL1       -0.0243
     11 C         139.6764  142.4139  170.3333 C.3     1  UNL1        0.0307
     12 C         142.3822  138.2493  164.2540 C.3     1  UNL1        0.0639
     13 C         142.0665  138.7426  162.8731 C.3     1  UNL1        0.0075
     14 C         141.8439  140.1721  162.4770 C.3     1  UNL1        0.0004
     15 C         141.5579  140.2060  161.0048 C.3     1  UNL1        0.0000
     16 C         141.6037  138.7975  160.4912 C.3     1  UNL1        0.0000
     17 C         141.9181  137.8931  161.6458 C.3     1  UNL1        0.0004
     18 C         139.5158  138.7126  165.7435 C.3     1  UNL1        0.1339
     19 C         138.9261  138.9674  164.3880 C.ar    1  UNL1        0.0005
     20 C         138.5112  140.3555  163.9995 C.ar    1  UNL1       -0.0015
     21 C         137.9215  140.6103  162.6440 C.ar    1  UNL1        0.0111
     22 C         137.7467  139.4770  161.6770 C.ar    1  UNL1        0.0577
     23 CL        137.1571  139.7318  160.3216 Cl      1  UNL1       -0.0822
     24 C         138.1616  138.0889  162.0655 C.ar    1  UNL1        0.0111
     25 C         138.7514  137.8341  163.4211 C.ar    1  UNL1       -0.0015
@<TRIPOS>BOND
     1     1     2    1
     2     2     3   ar
     3     3     4   ar
     4     4     5   ar
     5     5     6   ar
     6     6    12    1
     7    12    13    1
     8    13    14    1
     9    14    15    1
    10    15    16    1
    11    16    17    1
    12     6     7   ar
    13     7    18    1
    14    18    19    1
    15    19    20   ar
    16    20    21   ar
    17    21    22   ar
    18    22    23    1
    19    22    24   ar
    20    24    25   ar
    21     7     8   ar
    22     8     9   ar
    23     9    10   ar
    24    10    11    1
    25    10     2   ar
    26     8     4   ar
    27    17    13    1
    28    25    19   ar
@<TRIPOS>MOLECULE
*****
 25 28 0 0 0
SMALL
GASTEIGER

@<TRIPOS>ATOM
      1 C         140.7454  142.1180  171.0690 C.3     1  UNL1        0.0307
      2 C         140.8849  141.3714  169.7755 C.ar    1  UNL1       -0.0242
      3 C         139.6734  140.7844  169.1140 C.ar    1  UNL1        0.0160
      4 C         139.8128  140.0378  167.8205 C.ar    1  UNL1        0.0980
      5 N         138.8065  139.3549  166.9422 N.ar    1  UNL1       -0.2310
      6 C         139.5357  138.7732  165.7676 C.ar    1  UNL1        0.1205
      7 N         140.9925  139.0966  165.9198 N.ar    1  UNL1       -0.3107
      8 C         141.1637  139.8781  167.1885 C.ar    1  UNL1        0.0785
      9 C         142.3752  140.4651  167.8501 C.ar    1  UNL1        0.0142
     10 C         142.2358  141.2117  169.1436 C.ar    1  UNL1       -0.0243
     11 C         143.4474  141.7986  169.8052 C.3     1  UNL1        0.0307
     12 C         138.9167  138.0032  164.6387 C.3     1  UNL1        0.0639
     13 C         138.4688  138.7194  163.3992 C.3     1  UNL1        0.0075
     14 C         138.2989  138.1075  162.0403 C.3     1  UNL1        0.0004
     15 C         137.8373  139.1832  161.1021 C.3     1  UNL1        0.0000
     16 C         137.7220  140.4597  161.8813 C.3     1  UNL1        0.0000
     17 C         138.1123  140.1731  163.3009 C.3     1  UNL1        0.0004
     18 C         142.0861  138.7068  164.9700 C.3     1  UNL1        0.1339
     19 C         141.9457  138.9964  163.5049 C.ar    1  UNL1        0.0005
     20 C         142.0086  137.8760  162.5095 C.ar    1  UNL1       -0.0015
     21 C         141.8682  138.1655  161.0445 C.ar    1  UNL1        0.0111
     22 C         141.6649  139.5754  160.5747 C.ar    1  UNL1        0.0577
     23 CL        141.5245  139.8650  159.1097 Cl      1  UNL1       -0.0822
     24 C         141.6020  140.6959  161.5700 C.ar    1  UNL1        0.0111
     25 C         141.7424  140.4063  163.0352 C.ar    1  UNL1       -0.0015
@<TRIPOS>BOND
     1     1     2    1
     2     2     3   ar
     3     3     4   ar
     4     4     5   ar
     5     5     6   ar
     6     6    12    1
     7    12    13    1
     8    13    14    1
     9    14    15    1
    10    15    16    1
    11    16    17    1
    12     6     7   ar
    13     7    18    1
    14    18    19    1
    15    19    20   ar
    16    20    21   ar
    17    21    22   ar
    18    22    23    1
    19    22    24   ar
    20    24    25   ar
    21     7     8   ar
    22     8     9   ar
    23     9    10   ar
    24    10    11    1
    25    10     2   ar
    26     8     4   ar
    27    17    13    1
    28    25    19   ar
@<TRIPOS>MOLECULE
*****
 25 28 0 0 0
SMALL
GASTEIGER

@<TRIPOS>ATOM
      1 C         140.7404  142.1498  171.0588 C.3     1  UNL1        0.0307
      2 C         140.9127  141.3777  169.7844 C.ar    1  UNL1       -0.0242
      3 C         139.7130  140.8207  169.0770 C.ar    1  UNL1        0.0160
      4 C         139.8852  140.0487  167.8025 C.ar    1  UNL1        0.0980
      5 N         138.8970  139.3853  166.8895 N.ar    1  UNL1       -0.2310
      6 C         139.6582  138.7603  165.7582 C.ar    1  UNL1        0.1205
      7 N         141.1168  139.0374  165.9720 N.ar    1  UNL1       -0.3107
      8 C         141.2571  139.8336  167.2354 C.ar    1  UNL1        0.0785
      9 C         142.4568  140.3906  167.9428 C.ar    1  UNL1        0.0142
     10 C         142.2845  141.1627  169.2173 C.ar    1  UNL1       -0.0243
     11 C         143.4843  141.7197  169.9247 C.3     1  UNL1        0.0307
     12 C         139.0650  137.9929  164.6139 C.3     1  UNL1        0.0639
     13 C         138.5427  138.7228  163.4121 C.3     1  UNL1        0.0075
     14 C         138.2382  138.1150  162.0749 C.3     1  UNL1        0.0004
     15 C         137.7405  139.2052  161.1728 C.3     1  UNL1        0.0000
     16 C         137.7374  140.4867  161.9523 C.3     1  UNL1        0.0000
     17 C         138.2331  140.1885  163.3363 C.3     1  UNL1        0.0004
     18 C         142.2383  138.5957  165.0791 C.3     1  UNL1        0.1339
     19 C         142.8915  139.5786  164.1534 C.ar    1  UNL1        0.0005
     20 C         142.0581  140.3663  163.1863 C.ar    1  UNL1       -0.0015
     21 C         142.7112  141.3492  162.2605 C.ar    1  UNL1        0.0111
     22 C         144.1979  141.5446  162.3017 C.ar    1  UNL1        0.0577
     23 CL        144.8511  142.5275  161.3759 Cl      1  UNL1       -0.0822
     24 C         145.0314  140.7570  163.2687 C.ar    1  UNL1        0.0111
     25 C         144.3782  139.7740  164.1945 C.ar    1  UNL1       -0.0015
@<TRIPOS>BOND
     1     1     2    1
     2     2     3   ar
     3     3     4   ar
     4     4     5   ar
     5     5     6   ar
     6     6    12    1
     7    12    13    1
     8    13    14    1
     9    14    15    1
    10    15    16    1
    11    16    17    1
    12     6     7   ar
    13     7    18    1
    14    18    19    1
    15    19    20   ar
    16    20    21   ar
    17    21    22   ar
    18    22    23    1
    19    22    24   ar
    20    24    25   ar
    21     7     8   ar
    22     8     9   ar
    23     9    10   ar
    24    10    11    1
    25    10     2   ar
    26     8     4   ar
    27    17    13    1
    28    25    19   ar
@<TRIPOS>MOLECULE
*****
 25 28 0 0 0
SMALL
GASTEIGER

@<TRIPOS>ATOM
      1 C         142.1428  140.6371  171.2822 C.3     1  UNL1        0.0307
      2 C         142.0869  140.8053  169.7927 C.ar    1  UNL1       -0.0242
      3 C         141.0902  140.0262  168.9868 C.ar    1  UNL1        0.0160
      4 C         141.0344  140.1944  167.4973 C.ar    1  UNL1        0.0980
      5 N         140.1656  139.5662  166.4482 N.ar    1  UNL1       -0.2310
      6 C         140.5696  140.1253  165.1162 C.ar    1  UNL1        0.1205
      7 N         141.6880  141.0990  165.3422 N.ar    1  UNL1       -0.3107
      8 C         141.9752  141.1418  166.8138 C.ar    1  UNL1        0.0785
      9 C         142.9719  141.9209  167.6197 C.ar    1  UNL1        0.0142
     10 C         143.0278  141.7526  169.1092 C.ar    1  UNL1       -0.0243
     11 C         144.0245  142.5318  169.9151 C.3     1  UNL1        0.0307
     12 C         139.9619  139.7726  163.7909 C.3     1  UNL1        0.0639
     13 C         139.1542  140.7904  163.0415 C.3     1  UNL1        0.0075
     14 C         138.1538  141.7353  163.6384 C.3     1  UNL1        0.0004
     15 C         137.5864  142.5710  162.5294 C.3     1  UNL1        0.0000
     16 C         138.2361  142.1424  161.2471 C.3     1  UNL1        0.0000
     17 C         139.2050  141.0420  161.5636 C.3     1  UNL1        0.0004
     18 C         142.3950  141.8910  164.2825 C.3     1  UNL1        0.1339
     19 C         141.7036  143.0479  163.6241 C.ar    1  UNL1        0.0005
     20 C         141.9206  143.3195  162.1649 C.ar    1  UNL1       -0.0015
     21 C         141.2292  144.4763  161.5063 C.ar    1  UNL1        0.0111
     22 C         140.3208  145.3616  162.3069 C.ar    1  UNL1        0.0577
     23 CL        139.6293  146.5184  161.6485 Cl      1  UNL1       -0.0822
     24 C         140.1037  145.0901  163.7661 C.ar    1  UNL1        0.0111
     25 C         140.7952  143.9332  164.4247 C.ar    1  UNL1       -0.0015
@<TRIPOS>BOND
     1     1     2    1
     2     2     3   ar
     3     3     4   ar
     4     4     5   ar
     5     5     6   ar
     6     6    12    1
     7    12    13    1
     8    13    14    1
     9    14    15    1
    10    15    16    1
    11    16    17    1
    12     6     7   ar
    13     7    18    1
    14    18    19    1
    15    19    20   ar
    16    20    21   ar
    17    21    22   ar
    18    22    23    1
    19    22    24   ar
    20    24    25   ar
    21     7     8   ar
    22     8     9   ar
    23     9    10   ar
    24    10    11    1
    25    10     2   ar
    26     8     4   ar
    27    17    13    1
    28    25    19   ar
@<TRIPOS>MOLECULE
*****
 25 28 0 0 0
SMALL
GASTEIGER

@<TRIPOS>ATOM
      1 C         139.7122  142.8853  170.6248 C.3     1  UNL1        0.0307
      2 C         140.3549  142.1611  169.4792 C.ar    1  UNL1       -0.0242
      3 C         141.4939  142.7939  168.7361 C.ar    1  UNL1        0.0160
      4 C         142.1366  142.0696  167.5905 C.ar    1  UNL1        0.0980
      5 N         143.2683  142.4389  166.6778 N.ar    1  UNL1       -0.2310
      6 C         143.4715  141.3099  165.7112 C.ar    1  UNL1        0.1205
      7 N         142.4653  140.2430  166.0266 N.ar    1  UNL1       -0.3107
      8 C         141.6403  140.7126  167.1880 C.ar    1  UNL1        0.0785
      9 C         140.5014  140.0798  167.9311 C.ar    1  UNL1        0.0142
     10 C         139.8587  140.8040  169.0767 C.ar    1  UNL1       -0.0243
     11 C         138.7197  140.1711  169.8199 C.3     1  UNL1        0.0307
     12 C         144.5001  141.2571  164.6207 C.3     1  UNL1        0.0639
     13 C         144.0779  141.3653  163.1855 C.3     1  UNL1        0.0075
     14 C         144.4867  140.4444  162.0744 C.3     1  UNL1        0.0004
     15 C         143.8341  140.9234  160.8115 C.3     1  UNL1        0.0000
     16 C         143.0220  142.1404  161.1422 C.3     1  UNL1        0.0000
     17 C         143.1726  142.4135  162.6094 C.3     1  UNL1        0.0004
     18 C         142.3112  138.9361  165.3069 C.3     1  UNL1        0.1339
     19 C         141.1350  138.7114  164.4036 C.ar    1  UNL1        0.0005
     20 C         139.9650  137.9039  164.8824 C.ar    1  UNL1       -0.0015
     21 C         138.7888  137.6791  163.9791 C.ar    1  UNL1        0.0111
     22 C         138.7824  138.2619  162.5970 C.ar    1  UNL1        0.0577
     23 CL        137.6062  138.0372  161.6937 Cl      1  UNL1       -0.0822
     24 C         139.9523  139.0694  162.1181 C.ar    1  UNL1        0.0111
     25 C         141.1286  139.2942  163.0214 C.ar    1  UNL1       -0.0015
@<TRIPOS>BOND
     1     1     2    1
     2     2     3   ar
     3     3     4   ar
     4     4     5   ar
     5     5     6   ar
     6     6    12    1
     7    12    13    1
     8    13    14    1
     9    14    15    1
    10    15    16    1
    11    16    17    1
    12     6     7   ar
    13     7    18    1
    14    18    19    1
    15    19    20   ar
    16    20    21   ar
    17    21    22   ar
    18    22    23    1
    19    22    24   ar
    20    24    25   ar
    21     7     8   ar
    22     8     9   ar
    23     9    10   ar
    24    10    11    1
    25    10     2   ar
    26     8     4   ar
    27    17    13    1
    28    25    19   ar
@<TRIPOS>MOLECULE
*****
 25 28 0 0 0
SMALL
GASTEIGER

@<TRIPOS>ATOM
      1 C         142.3994  139.3043  169.9573 C.3     1  UNL1        0.0307
      2 C         141.8000  140.2042  168.9176 C.ar    1  UNL1       -0.0242
      3 C         140.7248  139.6877  168.0083 C.ar    1  UNL1        0.0160
      4 C         140.1254  140.5877  166.9687 C.ar    1  UNL1        0.0980
      5 N         139.0587  140.3604  165.9388 N.ar    1  UNL1       -0.2310
      6 C         138.8754  141.6365  165.1720 C.ar    1  UNL1        0.1205
      7 N         139.8288  142.6524  165.7280 N.ar    1  UNL1       -0.3107
      8 C         140.6013  142.0042  166.8384 C.ar    1  UNL1        0.0785
      9 C         141.6765  142.5207  167.7478 C.ar    1  UNL1        0.0142
     10 C         142.2759  141.6207  168.7874 C.ar    1  UNL1       -0.0243
     11 C         143.3512  142.1373  169.6967 C.3     1  UNL1        0.0307
     12 C         137.9085  141.8579  164.0467 C.3     1  UNL1        0.0639
     13 C         138.3694  141.7276  162.6253 C.3     1  UNL1        0.0075
     14 C         139.3516  140.7199  162.1058 C.3     1  UNL1        0.0004
     15 C         139.5182  140.9516  160.6331 C.3     1  UNL1        0.0000
     16 C         138.6390  142.1024  160.2425 C.3     1  UNL1        0.0000
     17 C         137.9290  142.5820  161.4737 C.3     1  UNL1        0.0004
     18 C         139.9826  144.0680  165.2564 C.3     1  UNL1        0.1339
     19 C         140.3435  144.3476  163.8276 C.ar    1  UNL1        0.0005
     20 C         141.4711  143.6007  163.1789 C.ar    1  UNL1       -0.0015
     21 C         141.8320  143.8802  161.7501 C.ar    1  UNL1        0.0111
     22 C         141.0654  144.9066  160.9699 C.ar    1  UNL1        0.0577
     23 CL        141.4262  145.1861  159.5410 Cl      1  UNL1       -0.0822
     24 C         139.9378  145.6535  161.6185 C.ar    1  UNL1        0.0111
     25 C         139.5768  145.3740  163.0474 C.ar    1  UNL1       -0.0015
@<TRIPOS>BOND
     1     1     2    1
     2     2     3   ar
     3     3     4   ar
     4     4     5   ar
     5     5     6   ar
     6     6    12    1
     7    12    13    1
     8    13    14    1
     9    14    15    1
    10    15    16    1
    11    16    17    1
    12     6     7   ar
    13     7    18    1
    14    18    19    1
    15    19    20   ar
    16    20    21   ar
    17    21    22   ar
    18    22    23    1
    19    22    24   ar
    20    24    25   ar
    21     7     8   ar
    22     8     9   ar
    23     9    10   ar
    24    10    11    1
    25    10     2   ar
    26     8     4   ar
    27    17    13    1
    28    25    19   ar
@<TRIPOS>MOLECULE
*****
 25 28 0 0 0
SMALL
GASTEIGER

@<TRIPOS>ATOM
      1 C         143.4714  141.0729  170.2161 C.3     1  UNL1        0.0307
      2 C         142.4826  141.0540  169.0882 C.ar    1  UNL1       -0.0242
      3 C         142.5048  139.9345  168.0901 C.ar    1  UNL1        0.0160
      4 C         141.5160  139.9156  166.9623 C.ar    1  UNL1        0.0980
      5 N         141.2977  138.9503  165.8350 N.ar    1  UNL1       -0.2310
      6 C         140.1518  139.4543  165.0086 C.ar    1  UNL1        0.1205
      7 N         139.6619  140.7310  165.6252 N.ar    1  UNL1       -0.3107
      8 C         140.5051  141.0161  166.8326 C.ar    1  UNL1        0.0785
      9 C         140.4829  142.1355  167.8307 C.ar    1  UNL1        0.0142
     10 C         141.4717  142.1545  168.9585 C.ar    1  UNL1       -0.0243
     11 C         141.4494  143.2740  169.9567 C.3     1  UNL1        0.0307
     12 C         139.5937  138.7970  163.7812 C.3     1  UNL1        0.0639
     13 C         139.2611  139.6225  162.5738 C.3     1  UNL1        0.0075
     14 C         137.9113  139.7391  161.9300 C.3     1  UNL1        0.0004
     15 C         138.0359  140.6651  160.7565 C.3     1  UNL1        0.0000
     16 C         139.4626  141.1208  160.6751 C.3     1  UNL1        0.0000
     17 C         140.2199  140.4765  161.7982 C.3     1  UNL1        0.0004
     18 C         138.5280  141.5745  165.1226 C.3     1  UNL1        0.1339
     19 C         138.8088  142.7857  164.2835 C.ar    1  UNL1        0.0005
     20 C         140.1714  143.4126  164.3036 C.ar    1  UNL1       -0.0015
     21 C         140.4523  144.6238  163.4645 C.ar    1  UNL1        0.0111
     22 C         139.3706  145.2083  162.6053 C.ar    1  UNL1        0.0577
     23 CL        139.6514  146.4195  161.7663 Cl      1  UNL1       -0.0822
     24 C         138.0079  144.5815  162.5852 C.ar    1  UNL1        0.0111
     25 C         137.7271  143.3702  163.4243 C.ar    1  UNL1       -0.0015
@<TRIPOS>BOND
     1     1     2    1
     2     2     3   ar
     3     3     4   ar
     4     4     5   ar
     5     5     6   ar
     6     6    12    1
     7    12    13    1
     8    13    14    1
     9    14    15    1
    10    15    16    1
    11    16    17    1
    12     6     7   ar
    13     7    18    1
    14    18    19    1
    15    19    20   ar
    16    20    21   ar
    17    21    22   ar
    18    22    23    1
    19    22    24   ar
    20    24    25   ar
    21     7     8   ar
    22     8     9   ar
    23     9    10   ar
    24    10    11    1
    25    10     2   ar
    26     8     4   ar
    27    17    13    1
    28    25    19   ar
@<TRIPOS>MOLECULE
*****
 25 28 0 0 0
SMALL
GASTEIGER

@<TRIPOS>ATOM
      1 C         141.6851  145.7895  158.0447 C.3     1  UNL1        0.0307
      2 C         141.2613  144.6359  158.9047 C.ar    1  UNL1       -0.0242
      3 C         140.1629  144.8141  159.9105 C.ar    1  UNL1        0.0160
      4 C         139.7391  143.6605  160.7705 C.ar    1  UNL1        0.0980
      5 N         138.6948  143.5364  161.8401 N.ar    1  UNL1       -0.2310
      6 C         138.7239  142.1280  162.3553 C.ar    1  UNL1        0.1205
      7 N         139.7862  141.3816  161.6040 N.ar    1  UNL1       -0.3107
      8 C         140.4136  142.3287  160.6246 C.ar    1  UNL1        0.0785
      9 C         141.5120  142.1505  159.6187 C.ar    1  UNL1        0.0142
     10 C         141.9358  143.3041  158.7588 C.ar    1  UNL1       -0.0243
     11 C         143.0343  143.1259  157.7529 C.3     1  UNL1        0.0307
     12 C         137.8450  141.5648  163.4326 C.3     1  UNL1        0.0639
     13 C         138.4510  141.0680  164.7116 C.3     1  UNL1        0.0075
     14 C         138.1846  139.7400  165.3560 C.3     1  UNL1        0.0004
     15 C         138.9988  139.6634  166.6135 C.3     1  UNL1        0.0000
     16 C         139.7685  140.9440  166.7462 C.3     1  UNL1        0.0000
     17 C         139.4299  141.8121  165.5708 C.3     1  UNL1        0.0004
     18 C         140.1562  139.9409  161.7981 C.3     1  UNL1        0.1339
     19 C         141.0054  139.5355  162.9662 C.ar    1  UNL1        0.0005
     20 C         140.8537  138.1686  163.5651 C.ar    1  UNL1       -0.0015
     21 C         141.7029  137.7630  164.7332 C.ar    1  UNL1        0.0111
     22 C         142.7038  138.7243  165.3024 C.ar    1  UNL1        0.0577
     23 CL        143.5530  138.3188  166.4704 Cl      1  UNL1       -0.0822
     24 C         142.8556  140.0912  164.7035 C.ar    1  UNL1        0.0111
     25 C         142.0064  140.4967  163.5354 C.ar    1  UNL1       -0.0015
@<TRIPOS>BOND
     1     1     2    1
     2     2     3   ar
     3     3     4   ar
     4     4     5   ar
     5     5     6   ar
     6     6    12    1
     7    12    13    1
     8    13    14    1
     9    14    15    1
    10    15    16    1
    11    16    17    1
    12     6     7   ar
    13     7    18    1
    14    18    19    1
    15    19    20   ar
    16    20    21   ar
    17    21    22   ar
    18    22    23    1
    19    22    24   ar
    20    24    25   ar
    21     7     8   ar
    22     8     9   ar
    23     9    10   ar
    24    10    11    1
    25    10     2   ar
    26     8     4   ar
    27    17    13    1
    28    25    19   ar
