@<TRIPOS>MOLECULE
*****
 44 48 0 0 0
SMALL
GASTEIGER

@<TRIPOS>ATOM
      1 C         137.1687  141.6320  156.6764 C.2     1  UNL1        0.2458
      2 O         137.0641  140.5249  157.6830 O.2     1  UNL1       -0.2730
      3 N         138.1976  142.7096  156.8508 N.am    1  UNL1       -0.2767
      4 C         138.4195  143.8739  155.9315 C.3     1  UNL1        0.0949
      5 C         139.5441  144.6959  156.4877 C.3     1  UNL1        0.0390
      6 C         140.0173  144.0396  157.7508 C.3     1  UNL1        0.0758
      7 C         139.1851  142.8120  157.9752 C.3     1  UNL1        0.1091
      8 N         141.1278  144.5256  158.6344 N.3     1  UNL1       -0.2982
      9 H         141.3422  145.4786  158.3406 H       1  UNL1        0.1232
     10 C         140.9407  144.5628  160.1223 C.3     1  UNL1        0.0542
     11 C         140.1613  145.6788  160.7525 C.3     1  UNL1        0.0185
     12 C         139.9743  145.7159  162.2403 C.3     1  UNL1        0.0340
     13 C         140.5667  144.6372  163.0979 C.3     1  UNL1        0.1231
     14 O         139.9144  145.4802  164.1532 O.3     1  UNL1       -0.3812
     15 C         141.3461  143.5213  162.4676 C.3     1  UNL1        0.0340
     16 C         141.5331  143.4841  160.9798 C.3     1  UNL1        0.0185
     17 H         139.4772  146.2391  163.7363 H       1  UNL1        0.2107
     18 C         140.9325  143.8513  164.3220 C.ar    1  UNL1        0.0830
     19 C         139.9085  143.6078  165.3907 C.ar    1  UNL1        0.0171
     20 C         140.2745  142.8218  166.6149 C.ar    1  UNL1        0.0029
     21 C         141.6643  142.2794  166.7702 C.ar    1  UNL1        0.0207
     22 C         142.6882  142.5229  165.7015 C.ar    1  UNL1        0.0985
     23 N         142.3223  143.3088  164.4774 N.ar    1  UNL1       -0.2459
     24 C         142.0301  141.4935  167.9944 C.ar    1  UNL1        0.0207
     25 C         141.8778  142.1087  169.3539 C.ar    1  UNL1        0.0032
     26 C         142.2436  141.3227  170.5780 C.ar    1  UNL1        0.0207
     27 C         142.7617  139.9216  170.4425 C.ar    1  UNL1        0.0989
     28 N         142.9140  139.3063  169.0830 N.ar    1  UNL1       -0.2423
     29 C         142.5482  140.0924  167.8589 C.ar    1  UNL1        0.0989
     30 C         136.2445  141.6616  155.4953 C.3     1  UNL1        0.1761
     31 O         134.7378  139.0705  155.6217 O.2     1  UNL1       -0.2701
     32 C         134.0060  140.3716  155.7682 C.2     1  UNL1        0.2462
     33 N         134.7593  141.6671  155.7050 N.am    1  UNL1       -0.2931
     34 H         134.2789  142.5210  155.8011 H       1  UNL1        0.1502
     35 C         132.5207  140.3772  155.9779 C.ar    1  UNL1        0.0533
     36 C         131.6782  141.4461  155.3474 C.ar    1  UNL1        0.0045
     37 C         130.1929  141.4517  155.5571 C.ar    1  UNL1        0.0001
     38 C         129.5501  140.3883  156.3974 C.ar    1  UNL1        0.0039
     39 C         130.3926  139.3194  157.0279 C.ar    1  UNL1        0.0716
     40 C         131.8779  139.3138  156.8182 C.ar    1  UNL1        0.0084
     41 C         129.7498  138.2560  157.8681 C.3     1  UNL1        0.4186
     42 F         129.1070  137.1926  158.7084 F       1  UNL1       -0.1659
     43 F         129.4601  139.2723  158.9326 F       1  UNL1       -0.1659
     44 F         130.0395  137.2397  156.8036 F       1  UNL1       -0.1659
@<TRIPOS>BOND
     1    31    32    2
     2    32    33   am
     3    33    30    1
     4    30     1    1
     5     1     2    2
     6     1     3   am
     7     3     4    1
     8     4     5    1
     9     5     6    1
    10     6     8    1
    11    10     8    1
    12    10    11    1
    13    11    12    1
    14    12    13    1
    15    13    14    1
    16    13    18    1
    17    18    19   ar
    18    19    20   ar
    19    20    21   ar
    20    21    24    1
    21    24    25   ar
    22    25    26   ar
    23    26    27   ar
    24    27    28   ar
    25    28    29   ar
    26    21    22   ar
    27    22    23   ar
    28    13    15    1
    29    15    16    1
    30     6     7    1
    31    32    35    1
    32    35    36   ar
    33    36    37   ar
    34    37    38   ar
    35    38    39   ar
    36    39    41    1
    37    41    42    1
    38    41    43    1
    39    41    44    1
    40    39    40   ar
    41     7     3    1
    42    40    35   ar
    43    16    10    1
    44    23    18   ar
    45    29    24   ar
    46    33    34    1
    47     8     9    1
    48    14    17    1
@<TRIPOS>MOLECULE
*****
 44 48 0 0 0
SMALL
GASTEIGER

@<TRIPOS>ATOM
      1 C         137.2447  141.6544  156.6674 C.2     1  UNL1        0.2458
      2 O         137.1207  140.5760  157.7026 O.2     1  UNL1       -0.2730
      3 N         138.2635  142.7424  156.8361 N.am    1  UNL1       -0.2767
      4 C         138.5023  143.8812  155.8893 C.3     1  UNL1        0.0949
      5 C         139.6086  144.7252  156.4493 C.3     1  UNL1        0.0390
      6 C         140.0535  144.1082  157.7421 C.3     1  UNL1        0.0758
      7 C         139.2222  142.8828  157.9811 C.3     1  UNL1        0.1091
      8 N         141.1392  144.6257  158.6385 N.3     1  UNL1       -0.2982
      9 H         141.3211  145.5885  158.3550 H       1  UNL1        0.1232
     10 C         140.9401  144.6422  160.1252 C.3     1  UNL1        0.0542
     11 C         140.1056  145.7159  160.7582 C.3     1  UNL1        0.0185
     12 C         139.9065  145.7324  162.2448 C.3     1  UNL1        0.0340
     13 C         140.5420  144.6752  163.0984 C.3     1  UNL1        0.1231
     14 O         139.8440  145.4786  164.1554 O.3     1  UNL1       -0.3812
     15 C         141.3764  143.6015  162.4653 C.3     1  UNL1        0.0340
     16 C         141.5755  143.5850  160.9787 C.3     1  UNL1        0.0185
     17 H         139.3752  146.2200  163.7411 H       1  UNL1        0.2107
     18 C         140.9349  143.8971  164.3191 C.ar    1  UNL1        0.0830
     19 C         139.9221  143.6202  165.3903 C.ar    1  UNL1        0.0171
     20 C         140.3152  142.8421  166.6110 C.ar    1  UNL1        0.0029
     21 C         141.7211  142.3408  166.7604 C.ar    1  UNL1        0.0207
     22 C         142.7338  142.6177  165.6891 C.ar    1  UNL1        0.0985
     23 N         142.3408  143.3958  164.4685 N.ar    1  UNL1       -0.2459
     24 C         142.1141  141.5626  167.9811 C.ar    1  UNL1        0.0207
     25 C         141.5189  140.2087  168.2313 C.ar    1  UNL1        0.0032
     26 C         141.9120  139.4306  169.4520 C.ar    1  UNL1        0.0207
     27 C         142.9001  140.0065  170.4225 C.ar    1  UNL1        0.0989
     28 N         143.4953  141.3605  170.1723 N.ar    1  UNL1       -0.2423
     29 C         143.1022  142.1386  168.9516 C.ar    1  UNL1        0.0989
     30 C         136.3501  141.6447  155.4635 C.3     1  UNL1        0.1761
     31 O         134.7403  139.1329  155.7787 O.2     1  UNL1       -0.2701
     32 C         134.0571  140.4682  155.7917 C.2     1  UNL1        0.2462
     33 N         134.8619  141.7241  155.6341 N.am    1  UNL1       -0.2931
     34 H         134.4134  142.6004  155.6427 H       1  UNL1        0.1502
     35 C         132.5689  140.5476  155.9624 C.ar    1  UNL1        0.0533
     36 C         131.8716  139.6151  156.9080 C.ar    1  UNL1        0.0045
     37 C         130.3834  139.6945  157.0786 C.ar    1  UNL1        0.0001
     38 C         129.5926  140.7065  156.3037 C.ar    1  UNL1        0.0039
     39 C         130.2899  141.6390  155.3582 C.ar    1  UNL1        0.0716
     40 C         131.7781  141.5596  155.1875 C.ar    1  UNL1        0.0084
     41 C         129.4991  142.6509  154.5833 C.3     1  UNL1        0.4186
     42 F         128.7082  143.6630  153.8083 F       1  UNL1       -0.1659
     43 F         129.2651  141.6392  153.5008 F       1  UNL1       -0.1659
     44 F         129.7330  143.6626  155.6657 F       1  UNL1       -0.1659
@<TRIPOS>BOND
     1    31    32    2
     2    32    33   am
     3    33    30    1
     4    30     1    1
     5     1     2    2
     6     1     3   am
     7     3     4    1
     8     4     5    1
     9     5     6    1
    10     6     8    1
    11    10     8    1
    12    10    11    1
    13    11    12    1
    14    12    13    1
    15    13    14    1
    16    13    18    1
    17    18    19   ar
    18    19    20   ar
    19    20    21   ar
    20    21    24    1
    21    24    25   ar
    22    25    26   ar
    23    26    27   ar
    24    27    28   ar
    25    28    29   ar
    26    21    22   ar
    27    22    23   ar
    28    13    15    1
    29    15    16    1
    30     6     7    1
    31    32    35    1
    32    35    36   ar
    33    36    37   ar
    34    37    38   ar
    35    38    39   ar
    36    39    41    1
    37    41    42    1
    38    41    43    1
    39    41    44    1
    40    39    40   ar
    41     7     3    1
    42    40    35   ar
    43    16    10    1
    44    23    18   ar
    45    29    24   ar
    46    33    34    1
    47     8     9    1
    48    14    17    1
@<TRIPOS>MOLECULE
*****
 44 48 0 0 0
SMALL
GASTEIGER

@<TRIPOS>ATOM
      1 C         144.6767  142.4901  162.9227 C.2     1  UNL1        0.2458
      2 O         145.9649  141.7278  162.8263 O.2     1  UNL1       -0.2730
      3 N         143.7795  142.6011  161.7257 N.am    1  UNL1       -0.2767
      4 C         142.4678  143.3268  161.6713 C.3     1  UNL1        0.0949
      5 C         141.9141  143.1801  160.2850 C.3     1  UNL1        0.0390
      6 C         142.8836  142.3639  159.4826 C.3     1  UNL1        0.0758
      7 C         144.0365  142.0061  160.3730 C.3     1  UNL1        0.1091
      8 N         142.7277  141.9740  158.0426 N.3     1  UNL1       -0.2982
      9 H         143.6432  142.0846  157.6068 H       1  UNL1        0.1232
     10 C         142.2414  140.6005  157.6859 C.3     1  UNL1        0.0542
     11 C         140.7770  140.2826  157.7519 C.3     1  UNL1        0.0185
     12 C         140.2909  138.9092  157.3952 C.3     1  UNL1        0.0340
     13 C         141.2691  137.8536  156.9726 C.3     1  UNL1        0.1231
     14 O         139.9902  137.0753  156.8807 O.3     1  UNL1       -0.3812
     15 C         142.7336  138.1714  156.9065 C.3     1  UNL1        0.0340
     16 C         143.2197  139.5449  157.2632 C.3     1  UNL1        0.0185
     17 H         139.2463  137.6447  157.1324 H       1  UNL1        0.2107
     18 C         141.8031  136.5276  156.5180 C.ar    1  UNL1        0.0830
     19 C         141.0917  135.7613  155.4425 C.ar    1  UNL1        0.0171
     20 C         141.6258  134.4353  154.9880 C.ar    1  UNL1        0.0029
     21 C         142.8713  133.8757  155.6089 C.ar    1  UNL1        0.0207
     22 C         143.5828  134.6421  156.6843 C.ar    1  UNL1        0.0985
     23 N         143.0487  135.9680  157.1389 N.ar    1  UNL1       -0.2459
     24 C         143.4054  132.5497  155.1543 C.ar    1  UNL1        0.0207
     25 C         144.3673  131.7917  156.0205 C.ar    1  UNL1        0.0032
     26 C         144.9013  130.4658  155.5658 C.ar    1  UNL1        0.0207
     27 C         144.4734  129.8979  154.2451 C.ar    1  UNL1        0.0989
     28 N         143.5116  130.6559  153.3789 N.ar    1  UNL1       -0.2423
     29 C         142.9776  131.9819  153.8336 C.ar    1  UNL1        0.0989
     30 C         144.2857  143.1414  164.2161 C.3     1  UNL1        0.1761
     31 O         141.4035  143.4767  164.9780 O.2     1  UNL1       -0.2701
     32 C         142.2611  142.4844  165.7058 C.2     1  UNL1        0.2462
     33 N         143.7022  142.3168  165.3249 N.am    1  UNL1       -0.2931
     34 H         144.2650  141.6655  165.8026 H       1  UNL1        0.1502
     35 C         141.6777  141.6597  166.8146 C.ar    1  UNL1        0.0533
     36 C         140.2182  141.3134  166.8037 C.ar    1  UNL1        0.0045
     37 C         139.6348  140.4887  167.9126 C.ar    1  UNL1        0.0001
     38 C         140.5108  140.0103  169.0323 C.ar    1  UNL1        0.0039
     39 C         141.9702  140.3566  169.0432 C.ar    1  UNL1        0.0716
     40 C         142.5536  141.1813  167.9343 C.ar    1  UNL1        0.0084
     41 C         142.8461  139.8782  170.1629 C.3     1  UNL1        0.4186
     42 F         143.7221  139.3998  171.2827 F       1  UNL1       -0.1659
     43 F         143.6921  141.1094  170.0271 F       1  UNL1       -0.1659
     44 F         142.0002  138.6471  170.2987 F       1  UNL1       -0.1659
@<TRIPOS>BOND
     1    31    32    2
     2    32    33   am
     3    33    30    1
     4    30     1    1
     5     1     2    2
     6     1     3   am
     7     3     4    1
     8     4     5    1
     9     5     6    1
    10     6     8    1
    11    10     8    1
    12    10    11    1
    13    11    12    1
    14    12    13    1
    15    13    14    1
    16    13    18    1
    17    18    19   ar
    18    19    20   ar
    19    20    21   ar
    20    21    24    1
    21    24    25   ar
    22    25    26   ar
    23    26    27   ar
    24    27    28   ar
    25    28    29   ar
    26    21    22   ar
    27    22    23   ar
    28    13    15    1
    29    15    16    1
    30     6     7    1
    31    32    35    1
    32    35    36   ar
    33    36    37   ar
    34    37    38   ar
    35    38    39   ar
    36    39    41    1
    37    41    42    1
    38    41    43    1
    39    41    44    1
    40    39    40   ar
    41     7     3    1
    42    40    35   ar
    43    16    10    1
    44    23    18   ar
    45    29    24   ar
    46    33    34    1
    47     8     9    1
    48    14    17    1
@<TRIPOS>MOLECULE
*****
 44 48 0 0 0
SMALL
GASTEIGER

@<TRIPOS>ATOM
      1 C         139.5692  143.0783  160.8091 C.2     1  UNL1        0.2458
      2 O         138.1009  143.2652  160.5657 O.2     1  UNL1       -0.2730
      3 N         140.4147  142.3740  159.7897 N.am    1  UNL1       -0.2767
      4 C         141.8884  142.1143  159.8941 C.3     1  UNL1        0.0949
      5 C         142.3194  141.3856  158.6559 C.3     1  UNL1        0.0390
      6 C         141.1121  141.1949  157.7863 C.3     1  UNL1        0.0758
      7 C         139.9350  141.8057  158.4871 C.3     1  UNL1        0.1091
      8 N         141.0865  140.5130  156.4505 N.3     1  UNL1       -0.2982
      9 H         141.3975  141.1997  155.7634 H       1  UNL1        0.1232
     10 C         141.9023  139.2746  156.2248 C.3     1  UNL1        0.0542
     11 C         143.2261  139.3656  155.5255 C.3     1  UNL1        0.0185
     12 C         144.0418  138.1272  155.2998 C.3     1  UNL1        0.0340
     13 C         143.5337  136.7978  155.7735 C.3     1  UNL1        0.1231
     14 O         144.8385  136.3763  155.1652 O.3     1  UNL1       -0.3812
     15 C         142.2099  136.7067  156.4728 C.3     1  UNL1        0.0340
     16 C         141.3942  137.9451  156.6985 C.3     1  UNL1        0.0185
     17 H         145.2940  137.1538  154.8063 H       1  UNL1        0.2107
     18 C         143.4788  135.3220  156.0359 C.ar    1  UNL1        0.0830
     19 C         143.2918  134.3640  154.8968 C.ar    1  UNL1        0.0171
     20 C         143.2369  132.8882  155.1594 C.ar    1  UNL1        0.0029
     21 C         143.3690  132.3703  156.5609 C.ar    1  UNL1        0.0207
     22 C         143.5559  133.3282  157.6999 C.ar    1  UNL1        0.0985
     23 N         143.6108  134.8040  157.4374 N.ar    1  UNL1       -0.2459
     24 C         143.3141  130.8944  156.8233 C.ar    1  UNL1        0.0207
     25 C         144.1862  130.2880  157.8824 C.ar    1  UNL1        0.0032
     26 C         144.1312  128.8121  158.1448 C.ar    1  UNL1        0.0207
     27 C         143.2041  127.9428  157.3481 C.ar    1  UNL1        0.0989
     28 N         142.3320  128.5491  156.2890 N.ar    1  UNL1       -0.2423
     29 C         142.3870  130.0250  156.0267 C.ar    1  UNL1        0.0989
     30 C         140.1919  143.5956  162.0719 C.3     1  UNL1        0.1761
     31 O         137.8584  143.2687  163.9288 O.2     1  UNL1       -0.2701
     32 C         139.1407  142.5393  164.2001 C.2     1  UNL1        0.2462
     33 N         140.3074  142.7027  163.2717 N.am    1  UNL1       -0.2931
     34 H         141.1490  142.2240  163.4498 H       1  UNL1        0.1502
     35 C         139.2563  141.6465  165.3999 C.ar    1  UNL1        0.0533
     36 C         140.0677  142.0824  166.5838 C.ar    1  UNL1        0.0045
     37 C         140.1833  141.1896  167.7836 C.ar    1  UNL1        0.0001
     38 C         139.4876  139.8608  167.7995 C.ar    1  UNL1        0.0039
     39 C         138.6762  139.4249  166.6156 C.ar    1  UNL1        0.0716
     40 C         138.5606  140.3177  165.4158 C.ar    1  UNL1        0.0084
     41 C         137.9805  138.0961  166.6315 C.3     1  UNL1        0.4186
     42 F         137.2847  136.7672  166.6473 F       1  UNL1       -0.1659
     43 F         137.2184  138.5098  167.8554 F       1  UNL1       -0.1659
     44 F         138.7426  137.6824  165.4075 F       1  UNL1       -0.1659
@<TRIPOS>BOND
     1    31    32    2
     2    32    33   am
     3    33    30    1
     4    30     1    1
     5     1     2    2
     6     1     3   am
     7     3     4    1
     8     4     5    1
     9     5     6    1
    10     6     8    1
    11    10     8    1
    12    10    11    1
    13    11    12    1
    14    12    13    1
    15    13    14    1
    16    13    18    1
    17    18    19   ar
    18    19    20   ar
    19    20    21   ar
    20    21    24    1
    21    24    25   ar
    22    25    26   ar
    23    26    27   ar
    24    27    28   ar
    25    28    29   ar
    26    21    22   ar
    27    22    23   ar
    28    13    15    1
    29    15    16    1
    30     6     7    1
    31    32    35    1
    32    35    36   ar
    33    36    37   ar
    34    37    38   ar
    35    38    39   ar
    36    39    41    1
    37    41    42    1
    38    41    43    1
    39    41    44    1
    40    39    40   ar
    41     7     3    1
    42    40    35   ar
    43    16    10    1
    44    23    18   ar
    45    29    24   ar
    46    33    34    1
    47     8     9    1
    48    14    17    1
@<TRIPOS>MOLECULE
*****
 44 48 0 0 0
SMALL
GASTEIGER

@<TRIPOS>ATOM
      1 C         141.7328  144.6476  162.0916 C.2     1  UNL1        0.2458
      2 O         140.5962  145.5124  161.6332 O.2     1  UNL1       -0.2730
      3 N         142.3788  143.6890  161.1357 N.am    1  UNL1       -0.2767
      4 C         143.5187  142.7654  161.4485 C.3     1  UNL1        0.0949
      5 C         143.8426  141.9913  160.2053 C.3     1  UNL1        0.0390
      6 C         142.9030  142.4364  159.1240 C.3     1  UNL1        0.0758
      7 C         141.9983  143.4856  159.6990 C.3     1  UNL1        0.1091
      8 N         142.8733  141.9226  157.7151 N.3     1  UNL1       -0.2982
      9 H         143.8289  141.9753  157.3623 H       1  UNL1        0.1232
     10 C         142.3839  140.5328  157.4338 C.3     1  UNL1        0.0542
     11 C         140.9301  140.2020  157.5984 C.3     1  UNL1        0.0185
     12 C         140.4407  138.8123  157.3171 C.3     1  UNL1        0.0340
     13 C         141.4051  137.7534  156.8712 C.3     1  UNL1        0.1231
     14 O         140.1328  136.9590  156.8823 O.3     1  UNL1       -0.3812
     15 C         142.8588  138.0842  156.7066 C.3     1  UNL1        0.0340
     16 C         143.3482  139.4739  156.9879 C.3     1  UNL1        0.0185
     17 H         139.3983  137.5287  157.1595 H       1  UNL1        0.2107
     18 C         141.9275  136.4186  156.4292 C.ar    1  UNL1        0.0830
     19 C         141.3383  135.7434  155.2263 C.ar    1  UNL1        0.0171
     20 C         141.8609  134.4086  154.7843 C.ar    1  UNL1        0.0029
     21 C         142.9725  133.7490  155.5453 C.ar    1  UNL1        0.0207
     22 C         143.5617  134.4242  156.7482 C.ar    1  UNL1        0.0985
     23 N         143.0392  135.7589  157.1901 N.ar    1  UNL1       -0.2459
     24 C         143.4950  132.4141  155.1032 C.ar    1  UNL1        0.0207
     25 C         143.0334  131.8204  153.8054 C.ar    1  UNL1        0.0032
     26 C         143.5559  130.4856  153.3635 C.ar    1  UNL1        0.0207
     27 C         144.5399  129.7446  154.2193 C.ar    1  UNL1        0.0989
     28 N         145.0016  130.3383  155.5172 N.ar    1  UNL1       -0.2423
     29 C         144.4790  131.6732  155.9591 C.ar    1  UNL1        0.0989
     30 C         142.2235  144.7415  163.5060 C.3     1  UNL1        0.1761
     31 O         139.5590  144.6432  164.8810 O.2     1  UNL1       -0.2701
     32 C         140.5896  143.5915  165.1667 C.2     1  UNL1        0.2462
     33 N         141.9219  143.6406  164.4792 N.am    1  UNL1       -0.2931
     34 H         142.5983  142.9503  164.6668 H       1  UNL1        0.1502
     35 C         140.2881  142.4907  166.1399 C.ar    1  UNL1        0.0533
     36 C         140.6127  142.6652  167.5939 C.ar    1  UNL1        0.0045
     37 C         140.3111  141.5643  168.5672 C.ar    1  UNL1        0.0001
     38 C         139.6849  140.2889  168.0864 C.ar    1  UNL1        0.0039
     39 C         139.3602  140.1144  166.6324 C.ar    1  UNL1        0.0716
     40 C         139.6618  141.2153  165.6592 C.ar    1  UNL1        0.0084
     41 C         138.7340  138.8390  166.1516 C.3     1  UNL1        0.4186
     42 F         138.1077  137.5635  165.6709 F       1  UNL1       -0.1659
     43 F         139.4586  138.9756  164.8454 F       1  UNL1       -0.1659
     44 F         138.0094  138.7024  167.4578 F       1  UNL1       -0.1659
@<TRIPOS>BOND
     1    31    32    2
     2    32    33   am
     3    33    30    1
     4    30     1    1
     5     1     2    2
     6     1     3   am
     7     3     4    1
     8     4     5    1
     9     5     6    1
    10     6     8    1
    11    10     8    1
    12    10    11    1
    13    11    12    1
    14    12    13    1
    15    13    14    1
    16    13    18    1
    17    18    19   ar
    18    19    20   ar
    19    20    21   ar
    20    21    24    1
    21    24    25   ar
    22    25    26   ar
    23    26    27   ar
    24    27    28   ar
    25    28    29   ar
    26    21    22   ar
    27    22    23   ar
    28    13    15    1
    29    15    16    1
    30     6     7    1
    31    32    35    1
    32    35    36   ar
    33    36    37   ar
    34    37    38   ar
    35    38    39   ar
    36    39    41    1
    37    41    42    1
    38    41    43    1
    39    41    44    1
    40    39    40   ar
    41     7     3    1
    42    40    35   ar
    43    16    10    1
    44    23    18   ar
    45    29    24   ar
    46    33    34    1
    47     8     9    1
    48    14    17    1
@<TRIPOS>MOLECULE
*****
 44 48 0 0 0
SMALL
GASTEIGER

@<TRIPOS>ATOM
      1 C         137.4234  141.5395  156.9739 C.2     1  UNL1        0.2458
      2 O         137.3799  140.5093  158.0633 O.2     1  UNL1       -0.2730
      3 N         138.3633  142.7037  157.0797 N.am    1  UNL1       -0.2767
      4 C         138.5174  143.8067  156.0747 C.3     1  UNL1        0.0949
      5 C         139.5634  144.7540  156.5829 C.3     1  UNL1        0.0390
      6 C         140.0559  144.2366  157.9019 C.3     1  UNL1        0.0758
      7 C         139.3142  142.9695  158.2089 C.3     1  UNL1        0.1091
      8 N         141.1057  144.8743  158.7628 N.3     1  UNL1       -0.2982
      9 H         140.6552  145.6472  159.2526 H       1  UNL1        0.1232
     10 C         141.8198  144.0609  159.8014 C.3     1  UNL1        0.0542
     11 C         143.0507  143.2871  159.4324 C.3     1  UNL1        0.0185
     12 C         143.7646  142.4738  160.4710 C.3     1  UNL1        0.0340
     13 C         143.2477  142.4342  161.8785 C.3     1  UNL1        0.1231
     14 O         144.4433  141.5387  162.0148 O.3     1  UNL1       -0.3812
     15 C         142.0168  143.2079  162.2475 C.3     1  UNL1        0.0340
     16 C         141.3029  144.0213  161.2090 C.3     1  UNL1        0.0185
     17 H         144.8925  141.4664  161.1581 H       1  UNL1        0.2107
     18 C         143.1461  142.0835  163.3334 C.ar    1  UNL1        0.0830
     19 C         142.5365  140.7777  163.7495 C.ar    1  UNL1        0.0171
     20 C         142.4350  140.4271  165.2044 C.ar    1  UNL1        0.0029
     21 C         142.9430  141.3824  166.2433 C.ar    1  UNL1        0.0207
     22 C         143.5525  142.6883  165.8272 C.ar    1  UNL1        0.0985
     23 N         143.6541  143.0389  164.3724 N.ar    1  UNL1       -0.2459
     24 C         142.8413  141.0318  167.6983 C.ar    1  UNL1        0.0207
     25 C         142.5154  139.6268  168.1101 C.ar    1  UNL1        0.0032
     26 C         142.4138  139.2762  169.5651 C.ar    1  UNL1        0.0207
     27 C         142.6382  140.3307  170.6080 C.ar    1  UNL1        0.0989
     28 N         142.9641  141.7357  170.1961 N.ar    1  UNL1       -0.2423
     29 C         143.0657  142.0862  168.7412 C.ar    1  UNL1        0.0989
     30 C         136.5269  141.4055  155.7787 C.3     1  UNL1        0.1761
     31 O         134.9020  138.8861  155.6685 O.2     1  UNL1       -0.2701
     32 C         134.2253  140.2058  155.8924 C.2     1  UNL1        0.2462
     33 N         135.0377  141.4655  155.9476 N.am    1  UNL1       -0.2931
     34 H         134.5935  142.3317  156.0946 H       1  UNL1        0.1502
     35 C         132.7360  140.2659  156.0613 C.ar    1  UNL1        0.0533
     36 C         131.9457  141.3386  155.3723 C.ar    1  UNL1        0.0045
     37 C         130.4565  141.3987  155.5412 C.ar    1  UNL1        0.0001
     38 C         129.7575  140.3861  156.3991 C.ar    1  UNL1        0.0039
     39 C         130.5478  139.3134  157.0881 C.ar    1  UNL1        0.0716
     40 C         132.0370  139.2533  156.9192 C.ar    1  UNL1        0.0084
     41 C         129.8488  138.3008  157.9460 C.3     1  UNL1        0.4186
     42 F         129.1498  137.2881  158.8040 F       1  UNL1       -0.1659
     43 F         128.6008  138.4723  157.1317 F       1  UNL1       -0.1659
     44 F         131.0967  138.1293  158.7603 F       1  UNL1       -0.1659
@<TRIPOS>BOND
     1    31    32    2
     2    32    33   am
     3    33    30    1
     4    30     1    1
     5     1     2    2
     6     1     3   am
     7     3     4    1
     8     4     5    1
     9     5     6    1
    10     6     8    1
    11    10     8    1
    12    10    11    1
    13    11    12    1
    14    12    13    1
    15    13    14    1
    16    13    18    1
    17    18    19   ar
    18    19    20   ar
    19    20    21   ar
    20    21    24    1
    21    24    25   ar
    22    25    26   ar
    23    26    27   ar
    24    27    28   ar
    25    28    29   ar
    26    21    22   ar
    27    22    23   ar
    28    13    15    1
    29    15    16    1
    30     6     7    1
    31    32    35    1
    32    35    36   ar
    33    36    37   ar
    34    37    38   ar
    35    38    39   ar
    36    39    41    1
    37    41    42    1
    38    41    43    1
    39    41    44    1
    40    39    40   ar
    41     7     3    1
    42    40    35   ar
    43    16    10    1
    44    23    18   ar
    45    29    24   ar
    46    33    34    1
    47     8     9    1
    48    14    17    1
@<TRIPOS>MOLECULE
*****
 44 48 0 0 0
SMALL
GASTEIGER

@<TRIPOS>ATOM
      1 C         139.9409  144.0462  161.3614 C.2     1  UNL1        0.2458
      2 O         139.2123  145.3527  161.2518 O.2     1  UNL1       -0.2730
      3 N         140.0743  143.1587  160.1594 N.am    1  UNL1       -0.2767
      4 C         140.7711  141.8310  160.1168 C.3     1  UNL1        0.0949
      5 C         140.6617  141.2949  158.7201 C.3     1  UNL1        0.0390
      6 C         139.8974  142.2912  157.8997 C.3     1  UNL1        0.0758
      7 C         139.5343  143.4431  158.7892 C.3     1  UNL1        0.1091
      8 N         139.5560  142.1588  156.4451 N.3     1  UNL1       -0.2982
      9 H         140.1125  141.3854  156.0812 H       1  UNL1        0.1232
     10 C         138.1376  141.9057  156.0275 C.3     1  UNL1        0.0542
     11 C         137.6150  142.4951  154.7510 C.3     1  UNL1        0.0185
     12 C         136.1967  142.2420  154.3336 C.3     1  UNL1        0.0340
     13 C         135.3010  141.3995  155.1926 C.3     1  UNL1        0.1231
     14 O         134.3530  141.7370  154.0803 O.3     1  UNL1       -0.3812
     15 C         135.8236  140.8102  156.4691 C.3     1  UNL1        0.0340
     16 C         137.2419  141.0633  156.8866 C.3     1  UNL1        0.0185
     17 H         134.8051  142.2950  153.4282 H       1  UNL1        0.2107
     18 C         134.0760  140.6743  155.6653 C.ar    1  UNL1        0.0830
     19 C         132.7309  141.3309  155.5670 C.ar    1  UNL1        0.0171
     20 C         131.5060  140.6055  156.0397 C.ar    1  UNL1        0.0029
     21 C         131.6261  139.2237  156.6107 C.ar    1  UNL1        0.0207
     22 C         132.9712  138.5672  156.7090 C.ar    1  UNL1        0.0985
     23 N         134.1961  139.2924  156.2363 N.ar    1  UNL1       -0.2459
     24 C         130.4011  138.4984  157.0834 C.ar    1  UNL1        0.0207
     25 C         130.1453  138.3369  158.5525 C.ar    1  UNL1        0.0032
     26 C         128.9202  137.6116  159.0251 C.ar    1  UNL1        0.0207
     27 C         127.9512  137.0479  158.0286 C.ar    1  UNL1        0.0989
     28 N         128.2070  137.2095  156.5595 N.ar    1  UNL1       -0.2423
     29 C         129.4320  137.9348  156.0869 C.ar    1  UNL1        0.0989
     30 C         140.5362  143.6271  162.6729 C.3     1  UNL1        0.1761
     31 O         138.1964  142.6251  164.2607 O.2     1  UNL1       -0.2701
     32 C         139.3085  141.6887  163.8916 C.2     1  UNL1        0.2462
     33 N         140.4784  142.1897  163.0977 N.am    1  UNL1       -0.2931
     34 H         141.2083  141.5751  162.8555 H       1  UNL1        0.1502
     35 C         139.2508  140.2513  164.3164 C.ar    1  UNL1        0.0533
     36 C         140.0438  139.2172  163.5735 C.ar    1  UNL1        0.0045
     37 C         139.9861  137.7798  163.9983 C.ar    1  UNL1        0.0001
     38 C         139.1354  137.3764  165.1660 C.ar    1  UNL1        0.0039
     39 C         138.3425  138.4104  165.9090 C.ar    1  UNL1        0.0716
     40 C         138.4002  139.8479  165.4842 C.ar    1  UNL1        0.0084
     41 C         137.4918  138.0070  167.0767 C.3     1  UNL1        0.4186
     42 F         136.6411  137.6036  168.2445 F       1  UNL1       -0.1659
     43 F         137.6304  139.3847  167.6536 F       1  UNL1       -0.1659
     44 F         137.3533  136.6294  166.4998 F       1  UNL1       -0.1659
@<TRIPOS>BOND
     1    31    32    2
     2    32    33   am
     3    33    30    1
     4    30     1    1
     5     1     2    2
     6     1     3   am
     7     3     4    1
     8     4     5    1
     9     5     6    1
    10     6     8    1
    11    10     8    1
    12    10    11    1
    13    11    12    1
    14    12    13    1
    15    13    14    1
    16    13    18    1
    17    18    19   ar
    18    19    20   ar
    19    20    21   ar
    20    21    24    1
    21    24    25   ar
    22    25    26   ar
    23    26    27   ar
    24    27    28   ar
    25    28    29   ar
    26    21    22   ar
    27    22    23   ar
    28    13    15    1
    29    15    16    1
    30     6     7    1
    31    32    35    1
    32    35    36   ar
    33    36    37   ar
    34    37    38   ar
    35    38    39   ar
    36    39    41    1
    37    41    42    1
    38    41    43    1
    39    41    44    1
    40    39    40   ar
    41     7     3    1
    42    40    35   ar
    43    16    10    1
    44    23    18   ar
    45    29    24   ar
    46    33    34    1
    47     8     9    1
    48    14    17    1
@<TRIPOS>MOLECULE
*****
 44 48 0 0 0
SMALL
GASTEIGER

@<TRIPOS>ATOM
      1 C         140.3075  144.4550  161.0399 C.2     1  UNL1        0.2458
      2 O         139.4628  145.6941  161.0738 O.2     1  UNL1       -0.2730
      3 N         140.4004  143.6448  159.7809 N.am    1  UNL1       -0.2767
      4 C         141.2007  142.3895  159.5973 C.3     1  UNL1        0.0949
      5 C         141.0042  141.9166  158.1874 C.3     1  UNL1        0.0390
      6 C         140.0824  142.8797  157.4997 C.3     1  UNL1        0.0758
      7 C         139.7092  143.9477  158.4845 C.3     1  UNL1        0.1091
      8 N         139.6157  142.7903  156.0770 N.3     1  UNL1       -0.2982
      9 H         140.3816  142.3823  155.5409 H       1  UNL1        0.1232
     10 C         138.3839  142.0036  155.7397 C.3     1  UNL1        0.0542
     11 C         138.3594  141.1365  154.5160 C.3     1  UNL1        0.0185
     12 C         137.1276  140.3498  154.1788 C.3     1  UNL1        0.0340
     13 C         135.9203  140.4302  155.0652 C.3     1  UNL1        0.1231
     14 O         135.4157  139.4759  154.0237 O.3     1  UNL1       -0.3812
     15 C         135.9447  141.2973  156.2889 C.3     1  UNL1        0.0340
     16 C         137.1765  142.0840  156.6262 C.3     1  UNL1        0.0185
     17 H         136.1086  139.3230  153.3624 H       1  UNL1        0.2107
     18 C         134.5377  140.1791  155.5899 C.ar    1  UNL1        0.0830
     19 C         133.4737  141.2243  155.4306 C.ar    1  UNL1        0.0171
     20 C         132.0910  140.9731  155.9554 C.ar    1  UNL1        0.0029
     21 C         131.7725  139.6768  156.6394 C.ar    1  UNL1        0.0207
     22 C         132.8365  138.6316  156.7988 C.ar    1  UNL1        0.0985
     23 N         134.2191  138.8828  156.2740 N.ar    1  UNL1       -0.2459
     24 C         130.3898  139.4257  157.1642 C.ar    1  UNL1        0.0207
     25 C         130.1819  138.4744  158.3052 C.ar    1  UNL1        0.0032
     26 C         128.7993  138.2234  158.8298 C.ar    1  UNL1        0.0207
     27 C         127.6246  138.9236  158.2135 C.ar    1  UNL1        0.0989
     28 N         127.8325  139.8749  157.0725 N.ar    1  UNL1       -0.2423
     29 C         129.2152  140.1259  156.5479 C.ar    1  UNL1        0.0989
     30 C         141.0593  144.0261  162.2650 C.3     1  UNL1        0.1761
     31 O         139.7969  144.3408  164.9682 O.2     1  UNL1       -0.2701
     32 C         139.9850  142.9726  164.3830 C.2     1  UNL1        0.2462
     33 N         140.6162  142.8152  163.0314 N.am    1  UNL1       -0.2931
     34 H         140.7396  141.9172  162.6473 H       1  UNL1        0.1502
     35 C         139.5420  141.7616  165.1493 C.ar    1  UNL1        0.0533
     36 C         138.5600  140.8058  164.5393 C.ar    1  UNL1        0.0045
     37 C         138.1169  139.5949  165.3057 C.ar    1  UNL1        0.0001
     38 C         138.6558  139.3397  166.6821 C.ar    1  UNL1        0.0039
     39 C         139.6378  140.2955  167.2921 C.ar    1  UNL1        0.0716
     40 C         140.0809  141.5065  166.5257 C.ar    1  UNL1        0.0084
     41 C         140.1767  140.0404  168.6685 C.3     1  UNL1        0.4186
     42 F         140.7157  139.7852  170.0449 F       1  UNL1       -0.1659
     43 F         138.8182  140.3009  169.2487 F       1  UNL1       -0.1659
     44 F         141.5352  139.7798  168.0883 F       1  UNL1       -0.1659
@<TRIPOS>BOND
     1    31    32    2
     2    32    33   am
     3    33    30    1
     4    30     1    1
     5     1     2    2
     6     1     3   am
     7     3     4    1
     8     4     5    1
     9     5     6    1
    10     6     8    1
    11    10     8    1
    12    10    11    1
    13    11    12    1
    14    12    13    1
    15    13    14    1
    16    13    18    1
    17    18    19   ar
    18    19    20   ar
    19    20    21   ar
    20    21    24    1
    21    24    25   ar
    22    25    26   ar
    23    26    27   ar
    24    27    28   ar
    25    28    29   ar
    26    21    22   ar
    27    22    23   ar
    28    13    15    1
    29    15    16    1
    30     6     7    1
    31    32    35    1
    32    35    36   ar
    33    36    37   ar
    34    37    38   ar
    35    38    39   ar
    36    39    41    1
    37    41    42    1
    38    41    43    1
    39    41    44    1
    40    39    40   ar
    41     7     3    1
    42    40    35   ar
    43    16    10    1
    44    23    18   ar
    45    29    24   ar
    46    33    34    1
    47     8     9    1
    48    14    17    1
@<TRIPOS>MOLECULE
*****
 44 48 0 0 0
SMALL
GASTEIGER

@<TRIPOS>ATOM
      1 C         142.0567  138.9523  157.1128 C.2     1  UNL1        0.2458
      2 O         143.4465  138.7858  157.6519 O.2     1  UNL1       -0.2730
      3 N         141.3334  140.2540  157.2928 N.am    1  UNL1       -0.2767
      4 C         139.9477  140.5666  156.8108 C.3     1  UNL1        0.0949
      5 C         139.6266  141.9774  157.2066 C.3     1  UNL1        0.0390
      6 C         140.8138  142.5367  157.9331 C.3     1  UNL1        0.0758
      7 C         141.8686  141.4715  157.9864 C.3     1  UNL1        0.1091
      8 N         140.9264  143.9184  158.5057 N.3     1  UNL1       -0.2982
      9 H         140.1725  144.4695  158.0955 H       1  UNL1        0.1232
     10 C         140.8544  144.1234  159.9900 C.3     1  UNL1        0.0542
     11 C         140.2956  145.4001  160.5445 C.3     1  UNL1        0.0185
     12 C         140.2236  145.6050  162.0287 C.3     1  UNL1        0.0340
     13 C         140.7105  144.5331  162.9583 C.3     1  UNL1        0.1231
     14 O         140.2672  145.5617  163.9561 O.3     1  UNL1       -0.3812
     15 C         141.2693  143.2564  162.4037 C.3     1  UNL1        0.0340
     16 C         141.3413  143.0515  160.9195 C.3     1  UNL1        0.0185
     17 H         139.9179  146.3364  163.4884 H       1  UNL1        0.2107
     18 C         141.0434  143.8186  164.2344 C.ar    1  UNL1        0.0830
     19 C         139.9934  143.6418  165.2910 C.ar    1  UNL1        0.0171
     20 C         140.3265  142.9272  166.5672 C.ar    1  UNL1        0.0029
     21 C         141.7094  142.3894  166.7867 C.ar    1  UNL1        0.0207
     22 C         142.7593  142.5662  165.7301 C.ar    1  UNL1        0.0985
     23 N         142.4263  143.2807  164.4540 N.ar    1  UNL1       -0.2459
     24 C         142.0423  141.6748  168.0629 C.ar    1  UNL1        0.0207
     25 C         141.8941  142.3805  169.3782 C.ar    1  UNL1        0.0032
     26 C         142.2271  141.6658  170.6543 C.ar    1  UNL1        0.0207
     27 C         142.7082  140.2456  170.6150 C.ar    1  UNL1        0.0989
     28 N         142.8564  139.5400  169.2997 N.ar    1  UNL1       -0.2423
     29 C         142.5235  140.2547  168.0236 C.ar    1  UNL1        0.0989
     30 C         141.3903  137.8171  156.3936 C.3     1  UNL1        0.1761
     31 O         140.7211  135.6868  154.3901 O.2     1  UNL1       -0.2701
     32 C         141.5332  135.3460  155.6042 C.2     1  UNL1        0.2462
     33 N         141.8678  136.4111  156.6060 N.am    1  UNL1       -0.2931
     34 H         142.4009  136.1873  157.4029 H       1  UNL1        0.1502
     35 C         142.0108  133.9400  155.8167 C.ar    1  UNL1        0.0533
     36 C         141.2875  132.7964  155.1695 C.ar    1  UNL1        0.0045
     37 C         141.7650  131.3903  155.3819 C.ar    1  UNL1        0.0001
     38 C         142.9659  131.1280  156.2416 C.ar    1  UNL1        0.0039
     39 C         143.6892  132.2716  156.8887 C.ar    1  UNL1        0.0716
     40 C         143.2117  133.6776  156.6763 C.ar    1  UNL1        0.0084
     41 C         144.8901  132.0093  157.7484 C.3     1  UNL1        0.4186
     42 F         146.0911  131.7469  158.6080 F       1  UNL1       -0.1659
     43 F         144.8903  130.5747  157.3103 F       1  UNL1       -0.1659
     44 F         144.8900  133.4438  158.1864 F       1  UNL1       -0.1659
@<TRIPOS>BOND
     1    31    32    2
     2    32    33   am
     3    33    30    1
     4    30     1    1
     5     1     2    2
     6     1     3   am
     7     3     4    1
     8     4     5    1
     9     5     6    1
    10     6     8    1
    11    10     8    1
    12    10    11    1
    13    11    12    1
    14    12    13    1
    15    13    14    1
    16    13    18    1
    17    18    19   ar
    18    19    20   ar
    19    20    21   ar
    20    21    24    1
    21    24    25   ar
    22    25    26   ar
    23    26    27   ar
    24    27    28   ar
    25    28    29   ar
    26    21    22   ar
    27    22    23   ar
    28    13    15    1
    29    15    16    1
    30     6     7    1
    31    32    35    1
    32    35    36   ar
    33    36    37   ar
    34    37    38   ar
    35    38    39   ar
    36    39    41    1
    37    41    42    1
    38    41    43    1
    39    41    44    1
    40    39    40   ar
    41     7     3    1
    42    40    35   ar
    43    16    10    1
    44    23    18   ar
    45    29    24   ar
    46    33    34    1
    47     8     9    1
    48    14    17    1
