@<TRIPOS>MOLECULE
*****
 32 35 0 0 0
SMALL
GASTEIGER

@<TRIPOS>ATOM
      1 C         142.0330  139.4931  162.7605 C.3     1  UNL1        0.0342
      2 C         141.9409  140.9360  163.1600 C.ar    1  UNL1        0.0136
      3 C         141.7997  141.9975  162.1097 C.ar    1  UNL1        0.0212
      4 C         141.7076  143.4404  162.5093 C.ar    1  UNL1        0.1524
      5 C         141.7569  143.8217  163.9592 C.ar    1  UNL1        0.1619
      6 F         141.6648  145.2646  164.3587 F       1  UNL1       -0.2026
      7 C         141.8982  142.7602  165.0094 C.ar    1  UNL1        0.0676
      8 C         141.9902  141.3173  164.6099 C.ar    1  UNL1        0.1367
      9 S         141.5663  144.5019  161.4589 S.O2    1  UNL1        0.0769
     10 O         142.9923  144.2847  161.0475 O.2     1  UNL1       -0.1498
     11 O         140.1404  144.7192  161.8704 O.2     1  UNL1       -0.1498
     12 N         141.4250  145.5634  160.4086 N.pl3   1  UNL1       -0.1987
     13 H         141.3893  146.5121  160.6693 H       1  UNL1        0.1753
     14 C         141.3380  145.1795  158.9612 C.ar    1  UNL1        0.1503
     15 C         140.3809  144.1101  158.5251 C.ar    1  UNL1        0.0563
     16 C         140.2939  143.7262  157.0777 C.ar    1  UNL1        0.1036
     17 N         141.1641  144.4117  156.0663 N.ar    1  UNL1       -0.2223
     18 C         142.1213  145.4811  156.5024 C.ar    1  UNL1        0.2001
     19 N         142.2083  145.8650  157.9498 N.ar    1  UNL1       -0.2077
     20 O         142.1315  140.2558  165.6603 O.3     1  UNL1       -0.4790
     21 C         141.2119  140.2460  166.8452 C.3     1  UNL1        0.1713
     22 C         141.6880  140.7681  168.1684 C.3     1  UNL1        0.0439
     23 C         140.7682  140.7583  169.3534 C.3     1  UNL1        0.0037
     24 C         139.3725  140.2266  169.2151 C.3     1  UNL1        0.0006
     25 C         138.8964  139.7046  167.8920 C.3     1  UNL1        0.0095
     26 C         139.8160  139.7143  166.7070 C.3     1  UNL1        0.0799
     27 C         139.3399  139.1923  165.3838 C.ar    1  UNL1        0.0603
     28 C         139.4949  137.7868  164.8830 C.ar    1  UNL1        0.0369
     29 C         138.8760  137.7100  163.5188 C.ar    1  UNL1        0.1213
     30 N         138.3386  139.0679  163.1764 N.ar    1  UNL1       -0.1679
     31 N         138.6253  139.9840  164.3291 N.ar    1  UNL1       -0.2527
     32 C         138.2613  141.4368  164.4123 C.3     1  UNL1        0.1533
@<TRIPOS>BOND
     1     1     2    1
     2     2     3   ar
     3     3     4   ar
     4     4     9    1
     5     9    10    2
     6     9    11    2
     7     9    12    1
     8    12    14    1
     9    14    15   ar
    10    15    16   ar
    11    16    17   ar
    12    17    18   ar
    13    18    19   ar
    14     4     5   ar
    15     5     6    1
    16     5     7   ar
    17     7     8   ar
    18     8    20    1
    19    21    20    1
    20    21    22    1
    21    22    23    1
    22    23    24    1
    23    24    25    1
    24    25    26    1
    25    26    27    1
    26    27    28   ar
    27    28    29   ar
    28    29    30   ar
    29    30    31   ar
    30    31    32    1
    31     8     2   ar
    32    26    21    1
    33    31    27   ar
    34    19    14   ar
    35    12    13    1
@<TRIPOS>MOLECULE
*****
 32 35 0 0 0
SMALL
GASTEIGER

@<TRIPOS>ATOM
      1 C         142.2887  138.9237  164.8085 C.3     1  UNL1        0.0342
      2 C         142.7986  140.3125  164.5611 C.ar    1  UNL1        0.0136
      3 C         142.9714  140.8088  163.1562 C.ar    1  UNL1        0.0212
      4 C         143.4813  142.1976  162.9088 C.ar    1  UNL1        0.1524
      5 C         143.8184  143.0901  164.0663 C.ar    1  UNL1        0.1619
      6 F         144.3284  144.4789  163.8189 F       1  UNL1       -0.2026
      7 C         143.6457  142.5938  165.4712 C.ar    1  UNL1        0.0676
      8 C         143.1357  141.2050  165.7186 C.ar    1  UNL1        0.1367
      9 S         143.6541  142.6940  161.5039 S.O2    1  UNL1        0.0769
     10 O         145.1074  142.3258  161.5525 O.2     1  UNL1       -0.1498
     11 O         142.2008  143.0621  161.4552 O.2     1  UNL1       -0.1498
     12 N         143.8268  143.1903  160.0990 N.pl3   1  UNL1       -0.1987
     13 H         143.7194  144.1481  159.8986 H       1  UNL1        0.1753
     14 C         144.1633  142.2271  158.9993 C.ar    1  UNL1        0.1503
     15 C         143.3865  140.9521  158.8553 C.ar    1  UNL1        0.0563
     16 C         143.7230  139.9890  157.7557 C.ar    1  UNL1        0.1036
     17 N         144.8363  140.3009  156.8001 N.ar    1  UNL1       -0.2223
     18 C         145.6131  141.5760  156.9440 C.ar    1  UNL1        0.2001
     19 N         145.2767  142.5391  158.0437 N.ar    1  UNL1       -0.2077
     20 O         142.9630  140.7087  167.1236 O.3     1  UNL1       -0.4790
     21 C         142.3610  141.6032  168.1663 C.3     1  UNL1        0.1713
     22 C         143.2383  142.2500  169.1968 C.3     1  UNL1        0.0439
     23 C         142.6363  143.1446  170.2396 C.3     1  UNL1        0.0037
     24 C         141.1570  143.3924  170.2518 C.3     1  UNL1        0.0006
     25 C         140.2796  142.7456  169.2213 C.3     1  UNL1        0.0095
     26 C         140.8816  141.8510  168.1786 C.3     1  UNL1        0.0799
     27 C         140.0043  141.2042  167.1481 C.ar    1  UNL1        0.0603
     28 C         139.3924  139.8379  167.2432 C.ar    1  UNL1        0.0369
     29 C         138.5947  139.5995  165.9954 C.ar    1  UNL1        0.1213
     30 N         138.7136  140.8183  165.1292 N.ar    1  UNL1       -0.1679
     31 N         139.5847  141.8101  165.8416 N.ar    1  UNL1       -0.2527
     32 C         139.9689  143.1691  165.3362 C.3     1  UNL1        0.1533
@<TRIPOS>BOND
     1     1     2    1
     2     2     3   ar
     3     3     4   ar
     4     4     9    1
     5     9    10    2
     6     9    11    2
     7     9    12    1
     8    12    14    1
     9    14    15   ar
    10    15    16   ar
    11    16    17   ar
    12    17    18   ar
    13    18    19   ar
    14     4     5   ar
    15     5     6    1
    16     5     7   ar
    17     7     8   ar
    18     8    20    1
    19    21    20    1
    20    21    22    1
    21    22    23    1
    22    23    24    1
    23    24    25    1
    24    25    26    1
    25    26    27    1
    26    27    28   ar
    27    28    29   ar
    28    29    30   ar
    29    30    31   ar
    30    31    32    1
    31     8     2   ar
    32    26    21    1
    33    31    27   ar
    34    19    14   ar
    35    12    13    1
@<TRIPOS>MOLECULE
*****
 32 35 0 0 0
SMALL
GASTEIGER

@<TRIPOS>ATOM
      1 C         143.6399  142.2338  164.6992 C.3     1  UNL1        0.0342
      2 C         142.2761  142.8408  164.5526 C.ar    1  UNL1        0.0136
      3 C         141.8049  143.3108  163.2084 C.ar    1  UNL1        0.0212
      4 C         140.4410  143.9178  163.0618 C.ar    1  UNL1        0.1524
      5 C         139.5484  144.0548  164.2594 C.ar    1  UNL1        0.1619
      6 F         138.1846  144.6618  164.1128 F       1  UNL1       -0.2026
      7 C         140.0196  143.5847  165.6037 C.ar    1  UNL1        0.0676
      8 C         141.3834  142.9777  165.7503 C.ar    1  UNL1        0.1367
      9 S         139.9699  144.3879  161.7175 S.O2    1  UNL1        0.0769
     10 O         140.5869  145.7314  161.9710 O.2     1  UNL1       -0.1498
     11 O         139.3529  143.0444  161.4640 O.2     1  UNL1       -0.1498
     12 N         139.4987  144.8579  160.3732 N.pl3   1  UNL1       -0.1987
     13 H         138.5590  145.1223  160.2458 H       1  UNL1        0.1753
     14 C         140.4593  144.9250  159.2231 C.ar    1  UNL1        0.1503
     15 C         140.1909  145.8520  158.0748 C.ar    1  UNL1        0.0563
     16 C         141.1514  145.9191  156.9247 C.ar    1  UNL1        0.1036
     17 N         142.3805  145.0593  156.9229 N.ar    1  UNL1       -0.2223
     18 C         142.6490  144.1322  158.0712 C.ar    1  UNL1        0.2001
     19 N         141.6884  144.0651  159.2213 N.ar    1  UNL1       -0.2077
     20 O         141.8546  142.5077  167.0946 O.3     1  UNL1       -0.4790
     21 C         140.8872  141.8709  168.0478 C.3     1  UNL1        0.1713
     22 C         140.5064  142.5787  169.3143 C.3     1  UNL1        0.0439
     23 C         139.5390  141.9418  170.2676 C.3     1  UNL1        0.0037
     24 C         138.9525  140.5973  169.9544 C.3     1  UNL1        0.0006
     25 C         139.3334  139.8895  168.6879 C.3     1  UNL1        0.0095
     26 C         140.3007  140.5263  167.7346 C.3     1  UNL1        0.0799
     27 C         140.6815  139.8185  166.4681 C.ar    1  UNL1        0.0603
     28 C         141.9913  139.1393  166.1973 C.ar    1  UNL1        0.0369
     29 C         141.9387  138.5667  164.8119 C.ar    1  UNL1        0.1213
     30 N         140.5965  138.8920  164.2265 N.ar    1  UNL1       -0.1679
     31 N         139.8196  139.6657  165.2501 N.ar    1  UNL1       -0.2527
     32 C         138.4254  140.1938  165.0847 C.3     1  UNL1        0.1533
@<TRIPOS>BOND
     1     1     2    1
     2     2     3   ar
     3     3     4   ar
     4     4     9    1
     5     9    10    2
     6     9    11    2
     7     9    12    1
     8    12    14    1
     9    14    15   ar
    10    15    16   ar
    11    16    17   ar
    12    17    18   ar
    13    18    19   ar
    14     4     5   ar
    15     5     6    1
    16     5     7   ar
    17     7     8   ar
    18     8    20    1
    19    21    20    1
    20    21    22    1
    21    22    23    1
    22    23    24    1
    23    24    25    1
    24    25    26    1
    25    26    27    1
    26    27    28   ar
    27    28    29   ar
    28    29    30   ar
    29    30    31   ar
    30    31    32    1
    31     8     2   ar
    32    26    21    1
    33    31    27   ar
    34    19    14   ar
    35    12    13    1
@<TRIPOS>MOLECULE
*****
 32 35 0 0 0
SMALL
GASTEIGER

@<TRIPOS>ATOM
      1 C         138.4298  139.6641  163.3303 C.3     1  UNL1        0.0342
      2 C         138.9679  141.0227  163.6689 C.ar    1  UNL1        0.0136
      3 C         139.1180  142.0590  162.5948 C.ar    1  UNL1        0.0212
      4 C         139.6561  143.4176  162.9334 C.ar    1  UNL1        0.1524
      5 C         140.0441  143.7400  164.3460 C.ar    1  UNL1        0.1619
      6 F         140.5822  145.0986  164.6845 F       1  UNL1       -0.2026
      7 C         139.8940  142.7038  165.4200 C.ar    1  UNL1        0.0676
      8 C         139.3559  141.3451  165.0815 C.ar    1  UNL1        0.1367
      9 S         139.8062  144.4538  161.8592 S.O2    1  UNL1        0.0769
     10 O         141.2609  144.1108  161.7315 O.2     1  UNL1       -0.1498
     11 O         138.3516  144.7969  161.9869 O.2     1  UNL1       -0.1498
     12 N         139.9563  145.4900  160.7851 N.pl3   1  UNL1       -0.1987
     13 H         139.7225  146.4283  160.9702 H       1  UNL1        0.1753
     14 C         140.4626  145.0968  159.4290 C.ar    1  UNL1        0.1503
     15 C         139.7766  144.0074  158.6593 C.ar    1  UNL1        0.0563
     16 C         140.2829  143.6141  157.3032 C.ar    1  UNL1        0.1036
     17 N         141.4753  144.3102  156.7169 N.ar    1  UNL1       -0.2223
     18 C         142.1613  145.3996  157.4866 C.ar    1  UNL1        0.2001
     19 N         141.6550  145.7929  158.8427 N.ar    1  UNL1       -0.2077
     20 O         139.2057  140.3089  166.1556 O.3     1  UNL1       -0.4790
     21 C         140.3175  140.0782  167.1358 C.3     1  UNL1        0.1713
     22 C         140.1666  140.5246  168.5598 C.3     1  UNL1        0.0439
     23 C         141.2784  140.2939  169.5400 C.3     1  UNL1        0.0037
     24 C         142.5411  139.6167  169.0961 C.3     1  UNL1        0.0006
     25 C         142.6920  139.1702  167.6721 C.3     1  UNL1        0.0095
     26 C         141.5802  139.4009  166.6919 C.3     1  UNL1        0.0799
     27 C         141.7311  138.9545  165.2679 C.ar    1  UNL1        0.0603
     28 C         141.2506  137.6536  164.6961 C.ar    1  UNL1        0.0369
     29 C         141.6116  137.6256  163.2404 C.ar    1  UNL1        0.1213
     30 N         142.3151  138.9092  162.9125 N.ar    1  UNL1       -0.1679
     31 N         142.3890  139.7304  164.1656 N.ar    1  UNL1       -0.2527
     32 C         143.0115  141.0891  164.2938 C.3     1  UNL1        0.1533
@<TRIPOS>BOND
     1     1     2    1
     2     2     3   ar
     3     3     4   ar
     4     4     9    1
     5     9    10    2
     6     9    11    2
     7     9    12    1
     8    12    14    1
     9    14    15   ar
    10    15    16   ar
    11    16    17   ar
    12    17    18   ar
    13    18    19   ar
    14     4     5   ar
    15     5     6    1
    16     5     7   ar
    17     7     8   ar
    18     8    20    1
    19    21    20    1
    20    21    22    1
    21    22    23    1
    22    23    24    1
    23    24    25    1
    24    25    26    1
    25    26    27    1
    26    27    28   ar
    27    28    29   ar
    28    29    30   ar
    29    30    31   ar
    30    31    32    1
    31     8     2   ar
    32    26    21    1
    33    31    27   ar
    34    19    14   ar
    35    12    13    1
@<TRIPOS>MOLECULE
*****
 32 35 0 0 0
SMALL
GASTEIGER

@<TRIPOS>ATOM
      1 C         138.1672  141.3715  163.1799 C.3     1  UNL1        0.0342
      2 C         139.1513  142.4989  163.2822 C.ar    1  UNL1        0.0136
      3 C         139.5607  143.2511  162.0507 C.ar    1  UNL1        0.0212
      4 C         140.5448  144.3785  162.1529 C.ar    1  UNL1        0.1524
      5 C         141.1195  144.7538  163.4866 C.ar    1  UNL1        0.1619
      6 F         142.1036  145.8812  163.5889 F       1  UNL1       -0.2026
      7 C         140.7100  144.0017  164.7181 C.ar    1  UNL1        0.0676
      8 C         139.7259  142.8742  164.6159 C.ar    1  UNL1        0.1367
      9 S         140.9543  145.1306  160.9213 S.O2    1  UNL1        0.0769
     10 O         142.2330  144.3483  160.8686 O.2     1  UNL1       -0.1498
     11 O         139.6755  145.9129  160.9740 O.2     1  UNL1       -0.1498
     12 N         141.3636  145.8828  159.6898 N.pl3   1  UNL1       -0.1987
     13 H         141.8590  146.7296  159.7721 H       1  UNL1        0.1753
     14 C         141.0183  145.3447  158.3329 C.ar    1  UNL1        0.1503
     15 C         141.7145  145.8769  157.1156 C.ar    1  UNL1        0.0563
     16 C         141.3692  145.3388  155.7587 C.ar    1  UNL1        0.1036
     17 N         140.3276  144.2686  155.6191 N.ar    1  UNL1       -0.2223
     18 C         139.6313  143.7363  156.8364 C.ar    1  UNL1        0.2001
     19 N         139.9766  144.2744  158.1934 N.ar    1  UNL1       -0.2077
     20 O         139.3165  142.1221  165.8475 O.3     1  UNL1       -0.4790
     21 C         140.3611  141.5890  166.7827 C.3     1  UNL1        0.1713
     22 C         140.9047  142.4610  167.8755 C.3     1  UNL1        0.0439
     23 C         141.9493  141.9278  168.8107 C.3     1  UNL1        0.0037
     24 C         142.4503  140.5228  168.6531 C.3     1  UNL1        0.0006
     25 C         141.9067  139.6509  167.5603 C.3     1  UNL1        0.0095
     26 C         140.8621  140.1839  166.6251 C.3     1  UNL1        0.0799
     27 C         140.3185  139.3120  165.5323 C.ar    1  UNL1        0.0603
     28 C         141.0217  138.9566  164.2558 C.ar    1  UNL1        0.0369
     29 C         140.1140  138.0673  163.4588 C.ar    1  UNL1        0.1213
     30 N         138.8499  137.8730  164.2426 N.ar    1  UNL1       -0.1679
     31 N         138.9763  138.6423  165.5241 N.ar    1  UNL1       -0.2527
     32 C         137.9421  138.7270  166.6072 C.3     1  UNL1        0.1533
@<TRIPOS>BOND
     1     1     2    1
     2     2     3   ar
     3     3     4   ar
     4     4     9    1
     5     9    10    2
     6     9    11    2
     7     9    12    1
     8    12    14    1
     9    14    15   ar
    10    15    16   ar
    11    16    17   ar
    12    17    18   ar
    13    18    19   ar
    14     4     5   ar
    15     5     6    1
    16     5     7   ar
    17     7     8   ar
    18     8    20    1
    19    21    20    1
    20    21    22    1
    21    22    23    1
    22    23    24    1
    23    24    25    1
    24    25    26    1
    25    26    27    1
    26    27    28   ar
    27    28    29   ar
    28    29    30   ar
    29    30    31   ar
    30    31    32    1
    31     8     2   ar
    32    26    21    1
    33    31    27   ar
    34    19    14   ar
    35    12    13    1
@<TRIPOS>MOLECULE
*****
 32 35 0 0 0
SMALL
GASTEIGER

@<TRIPOS>ATOM
      1 C         143.0264  141.9740  164.3395 C.3     1  UNL1        0.0342
      2 C         141.6559  142.4483  163.9565 C.ar    1  UNL1        0.0136
      3 C         141.4855  143.4056  162.8144 C.ar    1  UNL1        0.0212
      4 C         140.1150  143.8799  162.4313 C.ar    1  UNL1        0.1524
      5 C         138.9148  143.3969  163.1904 C.ar    1  UNL1        0.1619
      6 F         137.5443  143.8712  162.8074 F       1  UNL1       -0.2026
      7 C         139.0852  142.4396  164.3325 C.ar    1  UNL1        0.0676
      8 C         140.4557  141.9653  164.7156 C.ar    1  UNL1        0.1367
      9 S         139.9447  144.8373  161.2892 S.O2    1  UNL1        0.0769
     10 O         140.5879  145.9215  162.1020 O.2     1  UNL1       -0.1498
     11 O         139.3015  143.7531  160.4764 O.2     1  UNL1       -0.1498
     12 N         139.7743  145.7945  160.1470 N.pl3   1  UNL1       -0.1987
     13 H         139.1413  146.5446  160.2236 H       1  UNL1        0.1753
     14 C         140.5686  145.6091  158.8881 C.ar    1  UNL1        0.1503
     15 C         140.0761  146.1938  157.5976 C.ar    1  UNL1        0.0563
     16 C         140.8703  146.0083  156.3387 C.ar    1  UNL1        0.1036
     17 N         142.1570  145.2381  156.3703 N.ar    1  UNL1       -0.2223
     18 C         142.6496  144.6533  157.6609 C.ar    1  UNL1        0.2001
     19 N         141.8553  144.8388  158.9198 N.ar    1  UNL1       -0.2077
     20 O         140.6260  141.0079  165.8578 O.3     1  UNL1       -0.4790
     21 C         139.7660  139.7819  165.9434 C.3     1  UNL1        0.1713
     22 C         138.6278  139.7309  166.9190 C.3     1  UNL1        0.0439
     23 C         137.7678  138.5048  167.0046 C.3     1  UNL1        0.0037
     24 C         138.0460  137.3299  166.1146 C.3     1  UNL1        0.0006
     25 C         139.1843  137.3810  165.1390 C.3     1  UNL1        0.0095
     26 C         140.0443  138.6069  165.0534 C.3     1  UNL1        0.0799
     27 C         141.1825  138.6580  164.0778 C.ar    1  UNL1        0.0603
     28 C         141.0664  138.8758  162.5981 C.ar    1  UNL1        0.0369
     29 C         142.4489  138.8526  162.0164 C.ar    1  UNL1        0.1213
     30 N         143.4193  138.6205  163.1365 N.ar    1  UNL1       -0.1679
     31 N         142.6366  138.5002  164.4104 N.ar    1  UNL1       -0.2527
     32 C         143.2078  138.2637  165.7771 C.3     1  UNL1        0.1533
@<TRIPOS>BOND
     1     1     2    1
     2     2     3   ar
     3     3     4   ar
     4     4     9    1
     5     9    10    2
     6     9    11    2
     7     9    12    1
     8    12    14    1
     9    14    15   ar
    10    15    16   ar
    11    16    17   ar
    12    17    18   ar
    13    18    19   ar
    14     4     5   ar
    15     5     6    1
    16     5     7   ar
    17     7     8   ar
    18     8    20    1
    19    21    20    1
    20    21    22    1
    21    22    23    1
    22    23    24    1
    23    24    25    1
    24    25    26    1
    25    26    27    1
    26    27    28   ar
    27    28    29   ar
    28    29    30   ar
    29    30    31   ar
    30    31    32    1
    31     8     2   ar
    32    26    21    1
    33    31    27   ar
    34    19    14   ar
    35    12    13    1
@<TRIPOS>MOLECULE
*****
 32 35 0 0 0
SMALL
GASTEIGER

@<TRIPOS>ATOM
      1 C         138.5152  139.6999  165.1171 C.3     1  UNL1        0.0342
      2 C         139.0679  141.0552  164.7886 C.ar    1  UNL1        0.0136
      3 C         138.9568  141.5922  163.3925 C.ar    1  UNL1        0.0212
      4 C         139.5095  142.9474  163.0640 C.ar    1  UNL1        0.1524
      5 C         140.1733  143.7656  164.1316 C.ar    1  UNL1        0.1619
      6 F         140.7260  145.1208  163.8031 F       1  UNL1       -0.2026
      7 C         140.2844  143.2286  165.5277 C.ar    1  UNL1        0.0676
      8 C         139.7317  141.8733  165.8562 C.ar    1  UNL1        0.1367
      9 S         139.3983  143.4845  161.6678 S.O2    1  UNL1        0.0769
     10 O         137.9856  143.9070  161.9427 O.2     1  UNL1       -0.1498
     11 O         140.8110  143.0619  161.3928 O.2     1  UNL1       -0.1498
     12 N         139.2872  144.0215  160.2716 N.pl3   1  UNL1       -0.1987
     13 H         139.3321  144.9920  160.1125 H       1  UNL1        0.1753
     14 C         139.1077  143.0798  159.1179 C.ar    1  UNL1        0.1503
     15 C         139.5960  143.4645  157.7528 C.ar    1  UNL1        0.0563
     16 C         139.4164  142.5228  156.5991 C.ar    1  UNL1        0.1036
     17 N         138.7487  141.1964  156.8106 N.ar    1  UNL1       -0.2223
     18 C         138.2604  140.8117  158.1757 C.ar    1  UNL1        0.2001
     19 N         138.4399  141.7533  159.3294 N.ar    1  UNL1       -0.2077
     20 O         139.8429  141.3363  167.2524 O.3     1  UNL1       -0.4790
     21 C         140.8297  141.9354  168.2101 C.3     1  UNL1        0.1713
     22 C         140.3652  142.9018  169.2590 C.3     1  UNL1        0.0439
     23 C         141.3521  143.5009  170.2167 C.3     1  UNL1        0.0037
     24 C         142.8036  143.1336  170.1254 C.3     1  UNL1        0.0006
     25 C         143.2681  142.1672  169.0765 C.3     1  UNL1        0.0095
     26 C         142.2813  141.5681  168.1188 C.3     1  UNL1        0.0799
     27 C         142.7458  140.6017  167.0699 C.ar    1  UNL1        0.0603
     28 C         142.6135  139.1085  167.1261 C.ar    1  UNL1        0.0369
     29 C         143.2102  138.5428  165.8715 C.ar    1  UNL1        0.1213
     30 N         143.7112  139.6863  165.0399 N.ar    1  UNL1       -0.1679
     31 N         143.4242  140.9587  165.7806 N.ar    1  UNL1       -0.2527
     32 C         143.7571  142.3448  165.3138 C.3     1  UNL1        0.1533
@<TRIPOS>BOND
     1     1     2    1
     2     2     3   ar
     3     3     4   ar
     4     4     9    1
     5     9    10    2
     6     9    11    2
     7     9    12    1
     8    12    14    1
     9    14    15   ar
    10    15    16   ar
    11    16    17   ar
    12    17    18   ar
    13    18    19   ar
    14     4     5   ar
    15     5     6    1
    16     5     7   ar
    17     7     8   ar
    18     8    20    1
    19    21    20    1
    20    21    22    1
    21    22    23    1
    22    23    24    1
    23    24    25    1
    24    25    26    1
    25    26    27    1
    26    27    28   ar
    27    28    29   ar
    28    29    30   ar
    29    30    31   ar
    30    31    32    1
    31     8     2   ar
    32    26    21    1
    33    31    27   ar
    34    19    14   ar
    35    12    13    1
@<TRIPOS>MOLECULE
*****
 32 35 0 0 0
SMALL
GASTEIGER

@<TRIPOS>ATOM
      1 C         138.7664  144.9707  165.5130 C.3     1  UNL1        0.0342
      2 C         139.4677  144.2143  164.4239 C.ar    1  UNL1        0.0136
      3 C         139.9485  144.9354  163.1997 C.ar    1  UNL1        0.0212
      4 C         140.6498  144.1790  162.1106 C.ar    1  UNL1        0.1524
      5 C         140.8702  142.7015  162.2457 C.ar    1  UNL1        0.1619
      6 F         141.5715  141.9451  161.1567 F       1  UNL1       -0.2026
      7 C         140.3893  141.9803  163.4699 C.ar    1  UNL1        0.0676
      8 C         139.6881  142.7367  164.5590 C.ar    1  UNL1        0.1367
      9 S         141.1307  144.9002  160.8864 S.O2    1  UNL1        0.0769
     10 O         139.7100  145.1297  160.4635 O.2     1  UNL1       -0.1498
     11 O         142.5514  144.6706  161.3092 O.2     1  UNL1       -0.1498
     12 N         141.6116  145.6213  159.6622 N.pl3   1  UNL1       -0.1987
     13 H         142.1568  146.4360  159.7532 H       1  UNL1        0.1753
     14 C         141.2617  145.1013  158.2994 C.ar    1  UNL1        0.1503
     15 C         141.5816  143.6823  157.9333 C.ar    1  UNL1        0.0563
     16 C         141.2317  143.1623  156.5705 C.ar    1  UNL1        0.1036
     17 N         140.5620  144.0613  155.5739 N.ar    1  UNL1       -0.2223
     18 C         140.2421  145.4804  155.9400 C.ar    1  UNL1        0.2001
     19 N         140.5920  146.0004  157.3028 N.ar    1  UNL1       -0.2077
     20 O         139.2072  142.0155  165.7833 O.3     1  UNL1       -0.4790
     21 C         140.1764  141.6521  166.8688 C.3     1  UNL1        0.1713
     22 C         140.6178  142.6894  167.8584 C.3     1  UNL1        0.0439
     23 C         141.5871  142.3258  168.9440 C.3     1  UNL1        0.0037
     24 C         142.1149  140.9251  169.0399 C.3     1  UNL1        0.0006
     25 C         141.6736  139.8878  168.0504 C.3     1  UNL1        0.0095
     26 C         140.7043  140.2513  166.9648 C.3     1  UNL1        0.0799
     27 C         140.2630  139.2140  165.9753 C.ar    1  UNL1        0.0603
     28 C         138.8951  138.6046  165.8877 C.ar    1  UNL1        0.0369
     29 C         138.8988  137.6179  164.7578 C.ar    1  UNL1        0.1213
     30 N         140.2688  137.6176  164.1471 N.ar    1  UNL1       -0.1679
     31 N         141.1119  138.6040  164.8995 N.ar    1  UNL1       -0.2527
     32 C         142.5513  138.9242  164.6245 C.3     1  UNL1        0.1533
@<TRIPOS>BOND
     1     1     2    1
     2     2     3   ar
     3     3     4   ar
     4     4     9    1
     5     9    10    2
     6     9    11    2
     7     9    12    1
     8    12    14    1
     9    14    15   ar
    10    15    16   ar
    11    16    17   ar
    12    17    18   ar
    13    18    19   ar
    14     4     5   ar
    15     5     6    1
    16     5     7   ar
    17     7     8   ar
    18     8    20    1
    19    21    20    1
    20    21    22    1
    21    22    23    1
    22    23    24    1
    23    24    25    1
    24    25    26    1
    25    26    27    1
    26    27    28   ar
    27    28    29   ar
    28    29    30   ar
    29    30    31   ar
    30    31    32    1
    31     8     2   ar
    32    26    21    1
    33    31    27   ar
    34    19    14   ar
    35    12    13    1
@<TRIPOS>MOLECULE
*****
 32 35 0 0 0
SMALL
GASTEIGER

@<TRIPOS>ATOM
      1 C         143.4019  143.2835  164.7584 C.3     1  UNL1        0.0342
      2 C         142.2791  143.2763  163.7639 C.ar    1  UNL1        0.0136
      3 C         142.4026  144.0547  162.4876 C.ar    1  UNL1        0.0212
      4 C         141.2798  144.0475  161.4930 C.ar    1  UNL1        0.1524
      5 C         140.0334  143.2619  161.7747 C.ar    1  UNL1        0.1619
      6 F         138.9106  143.2547  160.7801 F       1  UNL1       -0.2026
      7 C         139.9099  142.4835  163.0509 C.ar    1  UNL1        0.0676
      8 C         141.0327  142.4907  164.0455 C.ar    1  UNL1        0.1367
      9 S         141.4034  144.8259  160.2168 S.O2    1  UNL1        0.0769
     10 O         140.2677  145.7075  160.6444 O.2     1  UNL1       -0.1498
     11 O         142.5391  143.9444  159.7891 O.2     1  UNL1       -0.1498
     12 N         141.5270  145.6043  158.9405 N.pl3   1  UNL1       -0.1987
     13 H         142.2537  146.2596  158.8320 H       1  UNL1        0.1753
     14 C         140.5435  145.3843  157.8296 C.ar    1  UNL1        0.1503
     15 C         140.1654  146.5208  156.9266 C.ar    1  UNL1        0.0563
     16 C         139.1818  146.3008  155.8156 C.ar    1  UNL1        0.1036
     17 N         138.5764  144.9443  155.6077 N.ar    1  UNL1       -0.2223
     18 C         138.9544  143.8077  156.5107 C.ar    1  UNL1        0.2001
     19 N         139.9380  144.0277  157.6216 N.ar    1  UNL1       -0.2077
     20 O         140.9091  141.7123  165.3218 O.3     1  UNL1       -0.4790
     21 C         140.2886  140.3467  165.3103 C.3     1  UNL1        0.1713
     22 C         138.8795  140.1592  165.7893 C.3     1  UNL1        0.0439
     23 C         138.2590  138.7935  165.7778 C.3     1  UNL1        0.0037
     24 C         139.0475  137.6156  165.2873 C.3     1  UNL1        0.0006
     25 C         140.4565  137.8031  164.8083 C.3     1  UNL1        0.0095
     26 C         141.0771  139.1687  164.8198 C.3     1  UNL1        0.0799
     27 C         142.4861  139.3562  164.3408 C.ar    1  UNL1        0.0603
     28 C         143.7190  139.3260  165.1947 C.ar    1  UNL1        0.0369
     29 C         144.9045  139.5580  164.3054 C.ar    1  UNL1        0.1213
     30 N         144.4043  139.7317  162.9020 N.ar    1  UNL1       -0.1679
     31 N         142.9097  139.6070  162.9239 N.ar    1  UNL1       -0.2527
     32 C         141.9986  139.7143  161.7371 C.3     1  UNL1        0.1533
@<TRIPOS>BOND
     1     1     2    1
     2     2     3   ar
     3     3     4   ar
     4     4     9    1
     5     9    10    2
     6     9    11    2
     7     9    12    1
     8    12    14    1
     9    14    15   ar
    10    15    16   ar
    11    16    17   ar
    12    17    18   ar
    13    18    19   ar
    14     4     5   ar
    15     5     6    1
    16     5     7   ar
    17     7     8   ar
    18     8    20    1
    19    21    20    1
    20    21    22    1
    21    22    23    1
    22    23    24    1
    23    24    25    1
    24    25    26    1
    25    26    27    1
    26    27    28   ar
    27    28    29   ar
    28    29    30   ar
    29    30    31   ar
    30    31    32    1
    31     8     2   ar
    32    26    21    1
    33    31    27   ar
    34    19    14   ar
    35    12    13    1
