@<TRIPOS>MOLECULE
*****
 38 42 0 0 0
SMALL
GASTEIGER

@<TRIPOS>ATOM
      1 O         140.6814  140.8361  159.9581 O.2     1  UNL1       -0.2751
      2 C         142.0528  140.4974  159.4534 C.2     1  UNL1        0.2228
      3 N         143.1645  141.4972  159.5741 N.am    1  UNL1       -0.2974
      4 H         144.0645  141.2749  159.2429 H       1  UNL1        0.1500
      5 C         142.3124  139.1589  158.8280 C.3     1  UNL1        0.0806
      6 C         142.2478  139.0023  157.3376 C.3     1  UNL1        0.0108
      7 C         142.5074  137.6638  156.7122 C.3     1  UNL1        0.0165
      8 C         142.8317  136.4820  157.5772 C.3     1  UNL1        0.0580
      9 C         142.8963  136.6387  159.0676 C.3     1  UNL1        0.0208
     10 C         142.6367  137.9772  159.6930 C.3     1  UNL1        0.0323
     11 C         142.7013  138.1338  161.1834 C.ar    1  UNL1       -0.0220
     12 C         143.9730  138.5899  161.8352 C.ar    1  UNL1       -0.0038
     13 C         144.0376  138.7465  163.3255 C.ar    1  UNL1        0.0064
     14 C         142.8305  138.4471  164.1642 C.ar    1  UNL1        0.0345
     15 BR        142.8952  138.6038  165.6546 Br      1  UNL1       -0.0490
     16 C         141.5588  137.9911  163.5124 C.ar    1  UNL1        0.0064
     17 C         141.4942  137.8345  162.0221 C.ar    1  UNL1       -0.0038
     18 N         143.0913  135.1435  156.9519 N.3     1  UNL1       -0.2697
     19 C         143.6870  134.0363  157.7700 C.3     1  UNL1        0.1046
     20 C         143.9467  132.6979  157.1446 C.3     1  UNL1        0.1595
     21 O         143.6106  132.4666  155.7011 O.3     1  UNL1       -0.3508
     22 C         143.0149  133.5738  154.8831 C.3     1  UNL1        0.1595
     23 C         142.7553  134.9123  155.5084 C.3     1  UNL1        0.1046
     24 C         142.9049  142.8356  160.1995 C.3     1  UNL1        0.1348
     25 C         143.3925  143.1215  161.5890 C.ar    1  UNL1        0.0012
     26 C         144.2981  142.1467  162.2814 C.ar    1  UNL1       -0.0014
     27 C         144.7857  142.4326  163.6708 C.ar    1  UNL1        0.0111
     28 C         144.3676  143.6933  164.3678 C.ar    1  UNL1        0.0577
     29 CL        144.8552  143.9792  165.7573 Cl      1  UNL1       -0.0822
     30 C         143.4619  144.6681  163.6754 C.ar    1  UNL1        0.0111
     31 C         142.9744  144.3822  162.2860 C.ar    1  UNL1       -0.0014
     32 C         142.1577  143.8882  159.4354 C.ar    1  UNL1        0.0812
     33 C         140.7733  144.2813  159.8585 C.ar    1  UNL1        0.0190
     34 C         140.0261  145.3340  159.0944 C.ar    1  UNL1        0.0325
     35 C         140.6633  145.9934  157.9073 C.ar    1  UNL1        0.1592
     36 F         139.9161  147.0459  157.1433 F       1  UNL1       -0.2025
     37 C         142.0477  145.6002  157.4843 C.ar    1  UNL1        0.1280
     38 N         142.7949  144.5477  158.2483 N.ar    1  UNL1       -0.2438
@<TRIPOS>BOND
     1     1     2    2
     2     2     3   am
     3     3    24    1
     4    24    25    1
     5    25    26   ar
     6    26    27   ar
     7    27    28   ar
     8    28    29    1
     9    28    30   ar
    10    30    31   ar
    11    24    32    1
    12    32    33   ar
    13    33    34   ar
    14    34    35   ar
    15    35    36    1
    16    35    37   ar
    17    37    38   ar
    18     5     2    1
    19     5     6    1
    20     6     7    1
    21     7     8    1
    22     8    18    1
    23    18    19    1
    24    19    20    1
    25    20    21    1
    26    21    22    1
    27    22    23    1
    28     8     9    1
    29     9    10    1
    30    10    11    1
    31    11    12   ar
    32    12    13   ar
    33    13    14   ar
    34    14    15    1
    35    14    16   ar
    36    16    17   ar
    37    31    25   ar
    38    38    32   ar
    39    10     5    1
    40    17    11   ar
    41    23    18    1
    42     3     4    1
@<TRIPOS>MOLECULE
*****
 38 42 0 0 0
SMALL
GASTEIGER

@<TRIPOS>ATOM
      1 O         140.7133  140.6772  160.0119 O.2     1  UNL1       -0.2751
      2 C         141.9719  140.4426  159.2302 C.2     1  UNL1        0.2228
      3 N         142.9577  141.5577  159.0435 N.am    1  UNL1       -0.2974
      4 H         143.7837  141.4037  158.5305 H       1  UNL1        0.1500
      5 C         142.2447  139.0929  158.6353 C.3     1  UNL1        0.0806
      6 C         142.1189  138.8866  157.1548 C.3     1  UNL1        0.0108
      7 C         142.3917  137.5369  156.5599 C.3     1  UNL1        0.0165
      8 C         142.7903  136.3936  157.4454 C.3     1  UNL1        0.0580
      9 C         142.9161  136.6000  158.9258 C.3     1  UNL1        0.0208
     10 C         142.6433  137.9497  159.5207 C.3     1  UNL1        0.0323
     11 C         142.7692  138.1561  161.0012 C.ar    1  UNL1       -0.0220
     12 C         144.0086  138.7821  161.5685 C.ar    1  UNL1       -0.0038
     13 C         144.1343  138.9885  163.0488 C.ar    1  UNL1        0.0064
     14 C         143.0207  138.5688  163.9619 C.ar    1  UNL1        0.0345
     15 BR        143.1466  138.7751  165.4423 Br      1  UNL1       -0.0490
     16 C         141.7813  137.9427  163.3946 C.ar    1  UNL1        0.0064
     17 C         141.6556  137.7363  161.9142 C.ar    1  UNL1       -0.0038
     18 N         143.0631  135.0439  156.8505 N.3     1  UNL1       -0.2697
     19 C         142.7233  134.7747  155.4144 C.3     1  UNL1        0.1046
     20 C         142.9961  133.4250  154.8195 C.3     1  UNL1        0.1595
     21 O         143.6087  132.3446  155.6606 O.3     1  UNL1       -0.3508
     22 C         143.9484  132.6138  157.0965 C.3     1  UNL1        0.1595
     23 C         143.6756  133.9635  157.6915 C.3     1  UNL1        0.1046
     24 C         142.6849  142.9074  159.6384 C.3     1  UNL1        0.1348
     25 C         143.1362  143.2164  161.0352 C.ar    1  UNL1        0.0012
     26 C         142.4187  144.2575  161.8422 C.ar    1  UNL1       -0.0014
     27 C         142.8701  144.5665  163.2388 C.ar    1  UNL1        0.0111
     28 C         144.0390  143.8345  163.8285 C.ar    1  UNL1        0.0577
     29 CL        144.4904  144.1436  165.2252 Cl      1  UNL1       -0.0822
     30 C         144.7566  142.7934  163.0215 C.ar    1  UNL1        0.0111
     31 C         144.3052  142.4844  161.6248 C.ar    1  UNL1       -0.0014
     32 C         141.9607  143.9479  158.8367 C.ar    1  UNL1        0.0812
     33 C         140.4696  143.8779  158.6894 C.ar    1  UNL1        0.0190
     34 C         139.7455  144.9186  157.8876 C.ar    1  UNL1        0.0325
     35 C         140.5125  146.0292  157.2332 C.ar    1  UNL1        0.1592
     36 F         139.7884  147.0697  156.4315 F       1  UNL1       -0.2025
     37 C         142.0036  146.0992  157.3805 C.ar    1  UNL1        0.1280
     38 N         142.7277  145.0586  158.1823 N.ar    1  UNL1       -0.2438
@<TRIPOS>BOND
     1     1     2    2
     2     2     3   am
     3     3    24    1
     4    24    25    1
     5    25    26   ar
     6    26    27   ar
     7    27    28   ar
     8    28    29    1
     9    28    30   ar
    10    30    31   ar
    11    24    32    1
    12    32    33   ar
    13    33    34   ar
    14    34    35   ar
    15    35    36    1
    16    35    37   ar
    17    37    38   ar
    18     5     2    1
    19     5     6    1
    20     6     7    1
    21     7     8    1
    22     8    18    1
    23    18    19    1
    24    19    20    1
    25    20    21    1
    26    21    22    1
    27    22    23    1
    28     8     9    1
    29     9    10    1
    30    10    11    1
    31    11    12   ar
    32    12    13   ar
    33    13    14   ar
    34    14    15    1
    35    14    16   ar
    36    16    17   ar
    37    31    25   ar
    38    38    32   ar
    39    10     5    1
    40    17    11   ar
    41    23    18    1
    42     3     4    1
@<TRIPOS>MOLECULE
*****
 38 42 0 0 0
SMALL
GASTEIGER

@<TRIPOS>ATOM
      1 O         143.9256  138.7371  160.1107 O.2     1  UNL1       -0.2751
      2 C         142.4358  138.6038  160.2248 C.2     1  UNL1        0.2228
      3 N         141.6100  138.3444  158.9998 N.am    1  UNL1       -0.2974
      4 H         140.6322  138.2569  159.0748 H       1  UNL1        0.1500
      5 C         141.7720  138.7299  161.5640 C.3     1  UNL1        0.0806
      6 C         141.6584  137.5325  162.4605 C.3     1  UNL1        0.0108
      7 C         140.9945  137.6586  163.7997 C.3     1  UNL1        0.0165
      8 C         140.4443  138.9820  164.2424 C.3     1  UNL1        0.0580
      9 C         140.5580  140.1792  163.3460 C.3     1  UNL1        0.0208
     10 C         141.2218  140.0532  162.0068 C.3     1  UNL1        0.0323
     11 C         141.3354  141.2505  161.1104 C.ar    1  UNL1       -0.0220
     12 C         142.5890  142.0742  161.1145 C.ar    1  UNL1       -0.0038
     13 C         142.7026  143.2715  160.2181 C.ar    1  UNL1        0.0064
     14 C         141.5626  143.6451  159.3176 C.ar    1  UNL1        0.0345
     15 BR        141.6762  144.8424  158.4211 Br      1  UNL1       -0.0490
     16 C         140.3090  142.8214  159.3135 C.ar    1  UNL1        0.0064
     17 C         140.1955  141.6241  160.2099 C.ar    1  UNL1       -0.0038
     18 N         139.7805  139.1080  165.5816 N.3     1  UNL1       -0.2697
     19 C         140.4710  139.8383  166.6952 C.3     1  UNL1        0.1046
     20 C         139.8072  139.9644  168.0344 C.3     1  UNL1        0.1595
     21 O         138.4528  139.3601  168.2600 O.3     1  UNL1       -0.3508
     22 C         137.7624  138.6299  167.1465 C.3     1  UNL1        0.1595
     23 C         138.4263  138.5039  165.8073 C.3     1  UNL1        0.1046
     24 C         142.2738  138.2184  157.6607 C.3     1  UNL1        0.1348
     25 C         142.0996  136.9670  156.8520 C.ar    1  UNL1        0.0012
     26 C         142.9694  135.7744  157.1189 C.ar    1  UNL1       -0.0014
     27 C         142.7951  134.5232  156.3103 C.ar    1  UNL1        0.0111
     28 C         141.7511  134.4644  155.2348 C.ar    1  UNL1        0.0577
     29 CL        141.5769  133.2130  154.4262 Cl      1  UNL1       -0.0822
     30 C         140.8813  135.6570  154.9680 C.ar    1  UNL1        0.0111
     31 C         141.0556  136.9082  155.7766 C.ar    1  UNL1       -0.0014
     32 C         143.1118  139.3436  157.1301 C.ar    1  UNL1        0.0812
     33 C         142.6383  140.7603  157.2665 C.ar    1  UNL1        0.0190
     34 C         143.4764  141.8856  156.7359 C.ar    1  UNL1        0.0325
     35 C         144.7879  141.5941  156.0688 C.ar    1  UNL1        0.1592
     36 F         145.6259  142.7193  155.5383 F       1  UNL1       -0.2025
     37 C         145.2614  140.1773  155.9324 C.ar    1  UNL1        0.1280
     38 N         144.4234  139.0521  156.4630 N.ar    1  UNL1       -0.2438
@<TRIPOS>BOND
     1     1     2    2
     2     2     3   am
     3     3    24    1
     4    24    25    1
     5    25    26   ar
     6    26    27   ar
     7    27    28   ar
     8    28    29    1
     9    28    30   ar
    10    30    31   ar
    11    24    32    1
    12    32    33   ar
    13    33    34   ar
    14    34    35   ar
    15    35    36    1
    16    35    37   ar
    17    37    38   ar
    18     5     2    1
    19     5     6    1
    20     6     7    1
    21     7     8    1
    22     8    18    1
    23    18    19    1
    24    19    20    1
    25    20    21    1
    26    21    22    1
    27    22    23    1
    28     8     9    1
    29     9    10    1
    30    10    11    1
    31    11    12   ar
    32    12    13   ar
    33    13    14   ar
    34    14    15    1
    35    14    16   ar
    36    16    17   ar
    37    31    25   ar
    38    38    32   ar
    39    10     5    1
    40    17    11   ar
    41    23    18    1
    42     3     4    1
@<TRIPOS>MOLECULE
*****
 38 42 0 0 0
SMALL
GASTEIGER

@<TRIPOS>ATOM
      1 O         140.4956  140.7393  159.7185 O.2     1  UNL1       -0.2751
      2 C         141.8897  140.4060  159.2763 C.2     1  UNL1        0.2228
      3 N         142.9890  141.4135  159.4386 N.am    1  UNL1       -0.2974
      4 H         143.9040  141.1948  159.1484 H       1  UNL1        0.1500
      5 C         142.1844  139.0653  158.6717 C.3     1  UNL1        0.0806
      6 C         142.0627  138.8677  157.1897 C.3     1  UNL1        0.0108
      7 C         142.3574  137.5269  156.5852 C.3     1  UNL1        0.0165
      8 C         142.7738  136.3837  157.4626 C.3     1  UNL1        0.0580
      9 C         142.8954  136.5813  158.9445 C.3     1  UNL1        0.0208
     10 C         142.6007  137.9221  159.5491 C.3     1  UNL1        0.0323
     11 C         142.7224  138.1197  161.0311 C.ar    1  UNL1       -0.0220
     12 C         141.5386  137.8771  161.9197 C.ar    1  UNL1       -0.0038
     13 C         141.6603  138.0747  163.4016 C.ar    1  UNL1        0.0064
     14 C         142.9658  138.5148  163.9949 C.ar    1  UNL1        0.0345
     15 BR        143.0875  138.7124  165.4769 Br      1  UNL1       -0.0490
     16 C         144.1496  138.7574  163.1062 C.ar    1  UNL1        0.0064
     17 C         144.0279  138.5598  161.6243 C.ar    1  UNL1       -0.0038
     18 N         143.0685  135.0430  156.8580 N.3     1  UNL1       -0.2697
     19 C         142.6808  134.7594  155.4370 C.3     1  UNL1        0.1046
     20 C         142.9755  133.4187  154.8324 C.3     1  UNL1        0.1595
     21 O         143.6579  132.3614  155.6489 O.3     1  UNL1       -0.3508
     22 C         144.0456  132.6450  157.0699 C.3     1  UNL1        0.1595
     23 C         143.7509  133.9858  157.6745 C.3     1  UNL1        0.1046
     24 C         142.6943  142.7543  160.0432 C.3     1  UNL1        0.1348
     25 C         141.9897  143.8031  159.2346 C.ar    1  UNL1        0.0012
     26 C         142.5339  144.2105  157.8975 C.ar    1  UNL1       -0.0014
     27 C         141.8293  145.2592  157.0891 C.ar    1  UNL1        0.0111
     28 C         140.5806  145.9006  157.6177 C.ar    1  UNL1        0.0577
     29 CL        139.8760  146.9493  156.8091 Cl      1  UNL1       -0.0822
     30 C         140.0365  145.4931  158.9548 C.ar    1  UNL1        0.0111
     31 C         140.7410  144.4444  159.7632 C.ar    1  UNL1       -0.0014
     32 C         143.1042  143.0463  161.4562 C.ar    1  UNL1        0.0812
     33 C         142.9278  142.0027  162.5192 C.ar    1  UNL1        0.0190
     34 C         143.3377  142.2948  163.9323 C.ar    1  UNL1        0.0325
     35 C         143.9239  143.6304  164.2824 C.ar    1  UNL1        0.1592
     36 F         144.3337  143.9224  165.6954 F       1  UNL1       -0.2025
     37 C         144.1002  144.6739  163.2194 C.ar    1  UNL1        0.1280
     38 N         143.6904  144.3819  161.8064 N.ar    1  UNL1       -0.2438
@<TRIPOS>BOND
     1     1     2    2
     2     2     3   am
     3     3    24    1
     4    24    25    1
     5    25    26   ar
     6    26    27   ar
     7    27    28   ar
     8    28    29    1
     9    28    30   ar
    10    30    31   ar
    11    24    32    1
    12    32    33   ar
    13    33    34   ar
    14    34    35   ar
    15    35    36    1
    16    35    37   ar
    17    37    38   ar
    18     5     2    1
    19     5     6    1
    20     6     7    1
    21     7     8    1
    22     8    18    1
    23    18    19    1
    24    19    20    1
    25    20    21    1
    26    21    22    1
    27    22    23    1
    28     8     9    1
    29     9    10    1
    30    10    11    1
    31    11    12   ar
    32    12    13   ar
    33    13    14   ar
    34    14    15    1
    35    14    16   ar
    36    16    17   ar
    37    31    25   ar
    38    38    32   ar
    39    10     5    1
    40    17    11   ar
    41    23    18    1
    42     3     4    1
@<TRIPOS>MOLECULE
*****
 38 42 0 0 0
SMALL
GASTEIGER

@<TRIPOS>ATOM
      1 O         143.7804  138.8146  159.7823 O.2     1  UNL1       -0.2751
      2 C         142.2932  138.9727  159.8975 C.2     1  UNL1        0.2228
      3 N         141.4536  139.0929  158.6603 N.am    1  UNL1       -0.2974
      4 H         140.4775  139.1967  158.7360 H       1  UNL1        0.1500
      5 C         141.6456  139.0104  161.2500 C.3     1  UNL1        0.0806
      6 C         141.5527  137.7592  162.0723 C.3     1  UNL1        0.0108
      7 C         140.9051  137.7969  163.4247 C.3     1  UNL1        0.0165
      8 C         140.3503  139.0858  163.9549 C.3     1  UNL1        0.0580
      9 C         140.4432  140.3369  163.1327 C.3     1  UNL1        0.0208
     10 C         141.0908  140.2992  161.7802 C.3     1  UNL1        0.0323
     11 C         141.1836  141.5503  160.9579 C.ar    1  UNL1       -0.0220
     12 C         140.0469  141.9453  160.0624 C.ar    1  UNL1       -0.0038
     13 C         140.1398  143.1964  159.2402 C.ar    1  UNL1        0.0064
     14 C         141.3693  144.0526  159.3135 C.ar    1  UNL1        0.0345
     15 BR        141.4621  145.3037  158.4913 Br      1  UNL1       -0.0490
     16 C         142.5060  143.6576  160.2090 C.ar    1  UNL1        0.0064
     17 C         142.4131  142.4065  161.0312 C.ar    1  UNL1       -0.0038
     18 N         139.7027  139.1235  165.3074 N.3     1  UNL1       -0.2697
     19 C         138.4311  138.3661  165.5514 C.3     1  UNL1        0.1046
     20 C         137.7835  138.4038  166.9039 C.3     1  UNL1        0.1595
     21 O         138.4075  139.1990  168.0123 O.3     1  UNL1       -0.3508
     22 C         139.6790  139.9563  167.7682 C.3     1  UNL1        0.1595
     23 C         140.3266  139.9186  166.4158 C.3     1  UNL1        0.1046
     24 C         142.1013  139.0552  157.3079 C.3     1  UNL1        0.1348
     25 C         142.4653  140.3347  156.6147 C.ar    1  UNL1        0.0012
     26 C         142.0730  140.5499  155.1830 C.ar    1  UNL1       -0.0014
     27 C         142.4370  141.8294  154.4899 C.ar    1  UNL1        0.0111
     28 C         143.1933  142.8936  155.2284 C.ar    1  UNL1        0.0577
     29 CL        143.5573  144.1731  154.5353 Cl      1  UNL1       -0.0822
     30 C         143.5855  142.6784  156.6601 C.ar    1  UNL1        0.0111
     31 C         143.2215  141.3990  157.3533 C.ar    1  UNL1       -0.0014
     32 C         142.3849  137.7381  156.6486 C.ar    1  UNL1        0.0812
     33 C         141.2575  136.8026  156.3262 C.ar    1  UNL1        0.0190
     34 C         141.5412  135.4854  155.6669 C.ar    1  UNL1        0.0325
     35 C         142.9522  135.1038  155.3300 C.ar    1  UNL1        0.1592
     36 F         143.2358  133.7866  154.6708 F       1  UNL1       -0.2025
     37 C         144.0795  136.0393  155.6524 C.ar    1  UNL1        0.1280
     38 N         143.7959  137.3564  156.3117 N.ar    1  UNL1       -0.2438
@<TRIPOS>BOND
     1     1     2    2
     2     2     3   am
     3     3    24    1
     4    24    25    1
     5    25    26   ar
     6    26    27   ar
     7    27    28   ar
     8    28    29    1
     9    28    30   ar
    10    30    31   ar
    11    24    32    1
    12    32    33   ar
    13    33    34   ar
    14    34    35   ar
    15    35    36    1
    16    35    37   ar
    17    37    38   ar
    18     5     2    1
    19     5     6    1
    20     6     7    1
    21     7     8    1
    22     8    18    1
    23    18    19    1
    24    19    20    1
    25    20    21    1
    26    21    22    1
    27    22    23    1
    28     8     9    1
    29     9    10    1
    30    10    11    1
    31    11    12   ar
    32    12    13   ar
    33    13    14   ar
    34    14    15    1
    35    14    16   ar
    36    16    17   ar
    37    31    25   ar
    38    38    32   ar
    39    10     5    1
    40    17    11   ar
    41    23    18    1
    42     3     4    1
@<TRIPOS>MOLECULE
*****
 38 42 0 0 0
SMALL
GASTEIGER

@<TRIPOS>ATOM
      1 O         143.4257  141.3923  158.9900 O.2     1  UNL1       -0.2751
      2 C         142.2587  140.4628  158.8341 C.2     1  UNL1        0.2228
      3 N         140.8801  140.9205  159.2082 N.am    1  UNL1       -0.2974
      4 H         140.1142  140.3104  159.1059 H       1  UNL1        0.1500
      5 C         142.4704  139.0756  158.3042 C.3     1  UNL1        0.0806
      6 C         142.4389  138.8247  156.8256 C.3     1  UNL1        0.0108
      7 C         142.6506  137.4375  156.2956 C.3     1  UNL1        0.0165
      8 C         142.8938  136.3012  157.2442 C.3     1  UNL1        0.0580
      9 C         142.9253  136.5522  158.7227 C.3     1  UNL1        0.0208
     10 C         142.7136  137.9394  159.2527 C.3     1  UNL1        0.0323
     11 C         142.7451  138.1903  160.7313 C.ar    1  UNL1       -0.0220
     12 C         144.0001  138.6948  161.3798 C.ar    1  UNL1       -0.0038
     13 C         144.0315  138.9457  162.8583 C.ar    1  UNL1        0.0064
     14 C         142.8081  138.6921  163.6883 C.ar    1  UNL1        0.0345
     15 BR        142.8396  138.9430  165.1668 Br      1  UNL1       -0.0490
     16 C         141.5532  138.1876  163.0397 C.ar    1  UNL1        0.0064
     17 C         141.5217  137.9367  161.5612 C.ar    1  UNL1       -0.0038
     18 N         143.1056  134.9140  156.7143 N.3     1  UNL1       -0.2697
     19 C         143.6536  133.8440  157.6113 C.3     1  UNL1        0.1046
     20 C         143.8654  132.4568  157.0814 C.3     1  UNL1        0.1595
     21 O         143.5290  132.1396  155.6543 O.3     1  UNL1       -0.3508
     22 C         142.9809  133.2097  154.7573 C.3     1  UNL1        0.1595
     23 C         142.7692  134.5969  155.2873 C.3     1  UNL1        0.1046
     24 C         140.6684  142.3077  159.7382 C.3     1  UNL1        0.1348
     25 C         140.5089  142.5309  161.2129 C.ar    1  UNL1        0.0012
     26 C         141.4887  141.9249  162.1735 C.ar    1  UNL1       -0.0014
     27 C         141.3292  142.1481  163.6481 C.ar    1  UNL1        0.0111
     28 C         140.1899  142.9774  164.1622 C.ar    1  UNL1        0.0577
     29 CL        140.0304  143.2006  165.6370 Cl      1  UNL1       -0.0822
     30 C         139.2101  143.5835  163.2017 C.ar    1  UNL1        0.0111
     31 C         139.3696  143.3602  161.7270 C.ar    1  UNL1       -0.0014
     32 C         140.6161  143.4716  158.7935 C.ar    1  UNL1        0.0812
     33 C         141.5680  144.6185  158.9630 C.ar    1  UNL1        0.0190
     34 C         141.5157  145.7824  158.0182 C.ar    1  UNL1        0.0325
     35 C         140.5116  145.7995  156.9040 C.ar    1  UNL1        0.1592
     36 F         140.4594  146.9634  155.9593 F       1  UNL1       -0.2025
     37 C         139.5598  144.6527  156.7345 C.ar    1  UNL1        0.1280
     38 N         139.6120  143.4887  157.6792 N.ar    1  UNL1       -0.2438
@<TRIPOS>BOND
     1     1     2    2
     2     2     3   am
     3     3    24    1
     4    24    25    1
     5    25    26   ar
     6    26    27   ar
     7    27    28   ar
     8    28    29    1
     9    28    30   ar
    10    30    31   ar
    11    24    32    1
    12    32    33   ar
    13    33    34   ar
    14    34    35   ar
    15    35    36    1
    16    35    37   ar
    17    37    38   ar
    18     5     2    1
    19     5     6    1
    20     6     7    1
    21     7     8    1
    22     8    18    1
    23    18    19    1
    24    19    20    1
    25    20    21    1
    26    21    22    1
    27    22    23    1
    28     8     9    1
    29     9    10    1
    30    10    11    1
    31    11    12   ar
    32    12    13   ar
    33    13    14   ar
    34    14    15    1
    35    14    16   ar
    36    16    17   ar
    37    31    25   ar
    38    38    32   ar
    39    10     5    1
    40    17    11   ar
    41    23    18    1
    42     3     4    1
@<TRIPOS>MOLECULE
*****
 38 42 0 0 0
SMALL
GASTEIGER

@<TRIPOS>ATOM
      1 O         143.5511  142.2351  160.8842 O.2     1  UNL1       -0.2751
      2 C         142.5377  141.1430  161.0589 C.2     1  UNL1        0.2228
      3 N         141.4452  141.2893  162.0762 N.am    1  UNL1       -0.2974
      4 H         140.7801  140.5725  162.1909 H       1  UNL1        0.1500
      5 C         142.6168  139.9046  160.2161 C.3     1  UNL1        0.0806
      6 C         142.4672  140.0003  158.7266 C.3     1  UNL1        0.0108
      7 C         142.5463  138.7619  157.8839 C.3     1  UNL1        0.0165
      8 C         142.7750  137.4279  158.5306 C.3     1  UNL1        0.0580
      9 C         142.9247  137.3323  160.0200 C.3     1  UNL1        0.0208
     10 C         142.8455  138.5707  160.8628 C.3     1  UNL1        0.0323
     11 C         142.9952  138.4750  162.3523 C.ar    1  UNL1       -0.0220
     12 C         144.2063  139.0523  163.0230 C.ar    1  UNL1       -0.0038
     13 C         144.3559  138.9567  164.5124 C.ar    1  UNL1        0.0064
     14 C         143.2944  138.2837  165.3311 C.ar    1  UNL1        0.0345
     15 BR        143.4440  138.1881  166.8206 Br      1  UNL1       -0.0490
     16 C         142.0832  137.7064  164.6604 C.ar    1  UNL1        0.0064
     17 C         141.9337  137.8021  163.1710 C.ar    1  UNL1       -0.0038
     18 N         142.8541  136.1896  157.6878 N.3     1  UNL1       -0.2697
     19 C         142.3280  136.2035  156.2831 C.3     1  UNL1        0.1046
     20 C         142.4071  134.9651  155.4404 C.3     1  UNL1        0.1595
     21 O         143.0124  133.7129  156.0023 O.3     1  UNL1       -0.3508
     22 C         143.5384  133.6991  157.4070 C.3     1  UNL1        0.1595
     23 C         143.4593  134.9374  158.2497 C.3     1  UNL1        0.1046
     24 C         141.3661  142.5276  162.9190 C.3     1  UNL1        0.1348
     25 C         141.8982  142.5156  164.3215 C.ar    1  UNL1        0.0012
     26 C         141.0074  142.1102  165.4581 C.ar    1  UNL1       -0.0014
     27 C         141.5394  142.0982  166.8605 C.ar    1  UNL1        0.0111
     28 C         142.9623  142.4917  167.1262 C.ar    1  UNL1        0.0577
     29 CL        143.4944  142.4797  168.5287 Cl      1  UNL1       -0.0822
     30 C         143.8531  142.8971  165.9896 C.ar    1  UNL1        0.0111
     31 C         143.3210  142.9091  164.5872 C.ar    1  UNL1       -0.0014
     32 C         140.7550  143.7779  162.3594 C.ar    1  UNL1        0.0812
     33 C         139.6576  144.4759  163.1068 C.ar    1  UNL1        0.0190
     34 C         139.0465  145.7263  162.5471 C.ar    1  UNL1        0.0325
     35 C         139.5328  146.2786  161.2400 C.ar    1  UNL1        0.1592
     36 F         138.9216  147.5289  160.6804 F       1  UNL1       -0.2025
     37 C         140.6301  145.5806  160.4926 C.ar    1  UNL1        0.1280
     38 N         141.2413  144.3303  161.0522 N.ar    1  UNL1       -0.2438
@<TRIPOS>BOND
     1     1     2    2
     2     2     3   am
     3     3    24    1
     4    24    25    1
     5    25    26   ar
     6    26    27   ar
     7    27    28   ar
     8    28    29    1
     9    28    30   ar
    10    30    31   ar
    11    24    32    1
    12    32    33   ar
    13    33    34   ar
    14    34    35   ar
    15    35    36    1
    16    35    37   ar
    17    37    38   ar
    18     5     2    1
    19     5     6    1
    20     6     7    1
    21     7     8    1
    22     8    18    1
    23    18    19    1
    24    19    20    1
    25    20    21    1
    26    21    22    1
    27    22    23    1
    28     8     9    1
    29     9    10    1
    30    10    11    1
    31    11    12   ar
    32    12    13   ar
    33    13    14   ar
    34    14    15    1
    35    14    16   ar
    36    16    17   ar
    37    31    25   ar
    38    38    32   ar
    39    10     5    1
    40    17    11   ar
    41    23    18    1
    42     3     4    1
@<TRIPOS>MOLECULE
*****
 38 42 0 0 0
SMALL
GASTEIGER

@<TRIPOS>ATOM
      1 O         139.9126  140.6709  158.0408 O.2     1  UNL1       -0.2751
      2 C         141.0025  141.6841  157.8513 C.2     1  UNL1        0.2228
      3 N         142.4230  141.3270  158.1744 N.am    1  UNL1       -0.2974
      4 H         143.1382  141.9919  158.0501 H       1  UNL1        0.1500
      5 C         140.6716  143.0544  157.3387 C.3     1  UNL1        0.0806
      6 C         140.5139  143.2861  155.8651 C.3     1  UNL1        0.0108
      7 C         140.1830  144.6564  155.3525 C.3     1  UNL1        0.0165
      8 C         140.0100  145.7951  156.3135 C.3     1  UNL1        0.0580
      9 C         140.1677  145.5634  157.7871 C.3     1  UNL1        0.0208
     10 C         140.4985  144.1931  158.2997 C.3     1  UNL1        0.0323
     11 C         140.6563  143.9614  159.7733 C.ar    1  UNL1       -0.0220
     12 C         141.9748  144.2269  160.4373 C.ar    1  UNL1       -0.0038
     13 C         142.1325  143.9952  161.9109 C.ar    1  UNL1        0.0064
     14 C         140.9717  143.4981  162.7204 C.ar    1  UNL1        0.0345
     15 BR        141.1294  143.2665  164.1941 Br      1  UNL1       -0.0490
     16 C         139.6531  143.2327  162.0564 C.ar    1  UNL1        0.0064
     17 C         139.4954  143.4644  160.5828 C.ar    1  UNL1       -0.0038
     18 N         139.6791  147.1654  155.8009 N.3     1  UNL1       -0.2697
     19 C         138.8710  148.1067  156.6442 C.3     1  UNL1        0.1046
     20 C         138.5402  149.4771  156.1316 C.3     1  UNL1        0.1595
     21 O         139.0175  149.9061  154.7757 O.3     1  UNL1       -0.3508
     22 C         139.8255  148.9648  153.9326 C.3     1  UNL1        0.1595
     23 C         140.1563  147.5945  154.4452 C.3     1  UNL1        0.1046
     24 C         142.7538  139.9566  158.6870 C.3     1  UNL1        0.1348
     25 C         142.8014  139.6997  160.1641 C.ar    1  UNL1        0.0012
     26 C         144.0075  139.0490  160.7737 C.ar    1  UNL1       -0.0014
     27 C         144.0550  138.7921  162.2508 C.ar    1  UNL1        0.0111
     28 C         142.8964  139.1858  163.1182 C.ar    1  UNL1        0.0577
     29 CL        142.9439  138.9289  164.5953 Cl      1  UNL1       -0.0822
     30 C         141.6902  139.8365  162.5086 C.ar    1  UNL1        0.0111
     31 C         141.6427  140.0935  161.0315 C.ar    1  UNL1       -0.0014
     32 C         143.0371  138.8433  157.7226 C.ar    1  UNL1        0.0812
     33 C         142.4193  137.4928  157.9336 C.ar    1  UNL1        0.0190
     34 C         142.7027  136.3794  156.9691 C.ar    1  UNL1        0.0325
     35 C         143.6037  136.6166  155.7936 C.ar    1  UNL1        0.1592
     36 F         143.8870  135.5032  154.8292 F       1  UNL1       -0.2025
     37 C         144.2215  137.9671  155.5826 C.ar    1  UNL1        0.1280
     38 N         143.9382  139.0804  156.5470 N.ar    1  UNL1       -0.2438
@<TRIPOS>BOND
     1     1     2    2
     2     2     3   am
     3     3    24    1
     4    24    25    1
     5    25    26   ar
     6    26    27   ar
     7    27    28   ar
     8    28    29    1
     9    28    30   ar
    10    30    31   ar
    11    24    32    1
    12    32    33   ar
    13    33    34   ar
    14    34    35   ar
    15    35    36    1
    16    35    37   ar
    17    37    38   ar
    18     5     2    1
    19     5     6    1
    20     6     7    1
    21     7     8    1
    22     8    18    1
    23    18    19    1
    24    19    20    1
    25    20    21    1
    26    21    22    1
    27    22    23    1
    28     8     9    1
    29     9    10    1
    30    10    11    1
    31    11    12   ar
    32    12    13   ar
    33    13    14   ar
    34    14    15    1
    35    14    16   ar
    36    16    17   ar
    37    31    25   ar
    38    38    32   ar
    39    10     5    1
    40    17    11   ar
    41    23    18    1
    42     3     4    1
@<TRIPOS>MOLECULE
*****
 38 42 0 0 0
SMALL
GASTEIGER

@<TRIPOS>ATOM
      1 O         139.3144  138.0956  161.6906 O.2     1  UNL1       -0.2751
      2 C         139.5057  139.5764  161.5461 C.2     1  UNL1        0.2228
      3 N         140.1559  140.3596  162.6478 N.am    1  UNL1       -0.2974
      4 H         140.2815  141.3315  162.5530 H       1  UNL1        0.1500
      5 C         139.0467  140.2739  160.3000 C.3     1  UNL1        0.0806
      6 C         139.0292  139.5390  158.9924 C.3     1  UNL1        0.0108
      7 C         138.5703  140.2365  157.7462 C.3     1  UNL1        0.0165
      8 C         138.1289  141.6688  157.8077 C.3     1  UNL1        0.0580
      9 C         138.1464  142.4036  159.1153 C.3     1  UNL1        0.0208
     10 C         138.6053  141.7061  160.3614 C.3     1  UNL1        0.0323
     11 C         138.6228  142.4409  161.6690 C.ar    1  UNL1       -0.0220
     12 C         137.5570  142.1783  162.6913 C.ar    1  UNL1       -0.0038
     13 C         137.5745  142.9131  163.9988 C.ar    1  UNL1        0.0064
     14 C         138.6579  143.9106  164.2841 C.ar    1  UNL1        0.0345
     15 BR        138.6754  144.6454  165.5917 Br      1  UNL1       -0.0490
     16 C         139.7237  144.1732  163.2619 C.ar    1  UNL1        0.0064
     17 C         139.7062  143.4384  161.9543 C.ar    1  UNL1       -0.0038
     18 N         137.6699  142.3663  156.5615 N.3     1  UNL1       -0.2697
     19 C         136.5229  141.8109  155.7703 C.3     1  UNL1        0.1046
     20 C         136.0639  142.5084  154.5242 C.3     1  UNL1        0.1595
     21 O         136.7520  143.7613  154.0692 O.3     1  UNL1       -0.3508
     22 C         137.8990  144.3166  154.8604 C.3     1  UNL1        0.1595
     23 C         138.3580  143.6191  156.1066 C.3     1  UNL1        0.1046
     24 C         140.6148  139.6621  163.8940 C.3     1  UNL1        0.1348
     25 C         139.6082  139.1579  164.8853 C.ar    1  UNL1        0.0012
     26 C         139.2218  137.7086  164.8906 C.ar    1  UNL1       -0.0014
     27 C         138.2152  137.2045  165.8819 C.ar    1  UNL1        0.0111
     28 C         137.5951  138.1497  166.8678 C.ar    1  UNL1        0.0577
     29 CL        136.5885  137.6456  167.8591 Cl      1  UNL1       -0.0822
     30 C         137.9815  139.5991  166.8625 C.ar    1  UNL1        0.0111
     31 C         138.9881  140.1032  165.8712 C.ar    1  UNL1       -0.0014
     32 C         142.0803  139.4688  164.1488 C.ar    1  UNL1        0.0812
     33 C         142.5418  138.8307  165.4255 C.ar    1  UNL1        0.0190
     34 C         144.0073  138.6374  165.6804 C.ar    1  UNL1        0.0325
     35 C         145.0113  139.0822  164.6586 C.ar    1  UNL1        0.1592
     36 F         146.4768  138.8889  164.9134 F       1  UNL1       -0.2025
     37 C         144.5498  139.7203  163.3819 C.ar    1  UNL1        0.1280
     38 N         143.0844  139.9136  163.1270 N.ar    1  UNL1       -0.2438
@<TRIPOS>BOND
     1     1     2    2
     2     2     3   am
     3     3    24    1
     4    24    25    1
     5    25    26   ar
     6    26    27   ar
     7    27    28   ar
     8    28    29    1
     9    28    30   ar
    10    30    31   ar
    11    24    32    1
    12    32    33   ar
    13    33    34   ar
    14    34    35   ar
    15    35    36    1
    16    35    37   ar
    17    37    38   ar
    18     5     2    1
    19     5     6    1
    20     6     7    1
    21     7     8    1
    22     8    18    1
    23    18    19    1
    24    19    20    1
    25    20    21    1
    26    21    22    1
    27    22    23    1
    28     8     9    1
    29     9    10    1
    30    10    11    1
    31    11    12   ar
    32    12    13   ar
    33    13    14   ar
    34    14    15    1
    35    14    16   ar
    36    16    17   ar
    37    31    25   ar
    38    38    32   ar
    39    10     5    1
    40    17    11   ar
    41    23    18    1
    42     3     4    1
