@<TRIPOS>MOLECULE
*****
 32 36 0 0 0
SMALL
GASTEIGER

@<TRIPOS>ATOM
      1 N         141.5925  137.6924  163.8355 N.pl3   1  UNL1       -0.2802
      2 H         141.5863  136.7079  163.8395 H       1  UNL1        0.1552
      3 C         141.5768  138.4372  162.5335 C.ar    1  UNL1        0.2208
      4 N         141.4518  137.6859  161.2412 N.ar    1  UNL1       -0.2111
      5 C         141.4361  138.4307  159.9393 C.ar    1  UNL1        0.1147
      6 C         141.5455  139.9266  159.9296 C.ar    1  UNL1        0.0960
      7 CL        141.5298  140.6714  158.6277 Cl      1  UNL1       -0.0790
      8 C         141.6705  140.6779  161.2220 C.ar    1  UNL1        0.1138
      9 N         141.6862  139.9331  162.5238 N.ar    1  UNL1       -0.2111
     10 C         141.7799  142.1739  161.2123 C.ar    1  UNL1        0.1031
     11 C         142.9559  142.9688  160.7276 C.ar    1  UNL1        0.1196
     12 N         142.6352  144.4238  160.9014 N.ar    1  UNL1       -0.2248
     13 C         141.2610  144.5281  161.4935 C.ar    1  UNL1        0.1479
     14 C         140.4227  145.7096  161.8824 C.ar    1  UNL1        0.0374
     15 C         139.0557  145.5005  162.4635 C.ar    1  UNL1        0.0046
     16 C         138.5271  144.1100  162.6557 C.ar    1  UNL1        0.0191
     17 C         139.3654  142.9285  162.2667 C.ar    1  UNL1        0.0815
     18 N         140.7323  143.1375  161.6856 N.ar    1  UNL1       -0.2874
     19 C         140.3463  139.0062  165.6985 C.ar    1  UNL1        0.1533
     20 C         140.3714  139.7614  166.9944 C.ar    1  UNL1        0.0527
     21 C         141.6678  139.9578  167.7229 C.ar    1  UNL1        0.0511
     22 C         142.9390  139.3991  167.1557 C.ar    1  UNL1        0.0160
     23 C         142.9139  138.6440  165.8599 C.ar    1  UNL1        0.0190
     24 C         141.6175  138.4475  165.1312 C.ar    1  UNL1        0.0850
     25 N         141.6928  140.7129  169.0187 N.pl3   1  UNL1       -0.3027
     26 C         140.8567  140.2479  170.1740 C.3     1  UNL1        0.1231
     27 C         140.8817  141.0030  171.4699 C.3     1  UNL1        0.1636
     28 O         141.7428  142.2231  171.6104 O.3     1  UNL1       -0.3501
     29 C         142.5789  142.6881  170.4551 C.3     1  UNL1        0.1636
     30 C         142.5539  141.9331  169.1593 C.3     1  UNL1        0.1231
     31 C         138.3793  139.9752  164.3048 C.3     1  UNL1        0.2525
     32 O         139.0499  138.8098  164.9699 O.3     1  UNL1       -0.4701
@<TRIPOS>BOND
     1    31    32    1
     2    32    19    1
     3    19    20   ar
     4    20    21   ar
     5    21    25    1
     6    25    26    1
     7    26    27    1
     8    27    28    1
     9    28    29    1
    10    29    30    1
    11    21    22   ar
    12    22    23   ar
    13    23    24   ar
    14    24     1    1
    15     1     3    1
    16     3     4   ar
    17     4     5   ar
    18     5     6   ar
    19     6     7    1
    20     6     8   ar
    21     8    10    1
    22    10    11   ar
    23    11    12   ar
    24    12    13   ar
    25    13    14   ar
    26    14    15   ar
    27    15    16   ar
    28    16    17   ar
    29    17    18   ar
    30     8     9   ar
    31    24    19   ar
    32     9     3   ar
    33    30    25    1
    34    18    10   ar
    35    18    13   ar
    36     1     2    1
@<TRIPOS>MOLECULE
*****
 32 36 0 0 0
SMALL
GASTEIGER

@<TRIPOS>ATOM
      1 N         139.6902  137.4840  163.8456 N.pl3   1  UNL1       -0.2802
      2 H         139.6789  136.5035  163.9345 H       1  UNL1        0.1552
      3 C         139.5005  138.1172  162.4992 C.ar    1  UNL1        0.2208
      4 N         138.1419  138.5953  162.0800 N.ar    1  UNL1       -0.2111
      5 C         137.9522  139.2286  160.7335 C.ar    1  UNL1        0.1147
      6 C         139.1210  139.3838  159.8063 C.ar    1  UNL1        0.0960
      7 CL        138.9313  140.0170  158.4598 Cl      1  UNL1       -0.0790
      8 C         140.4797  138.9057  160.2255 C.ar    1  UNL1        0.1138
      9 N         140.6693  138.2724  161.5719 N.ar    1  UNL1       -0.2111
     10 C         141.6485  139.0609  159.2983 C.ar    1  UNL1        0.1031
     11 C         142.1963  138.0040  158.3857 C.ar    1  UNL1        0.1196
     12 N         143.3611  138.5902  157.6443 N.ar    1  UNL1       -0.2248
     13 C         143.5331  140.0094  158.0986 C.ar    1  UNL1        0.1479
     14 C         144.5168  141.0743  157.7136 C.ar    1  UNL1        0.0374
     15 C         144.4419  142.4301  158.3508 C.ar    1  UNL1        0.0046
     16 C         143.3835  142.7210  159.3731 C.ar    1  UNL1        0.0191
     17 C         142.3998  141.6561  159.7581 C.ar    1  UNL1        0.0815
     18 N         142.4746  140.3003  159.1209 N.ar    1  UNL1       -0.2874
     19 C         141.2760  138.8113  165.4183 C.ar    1  UNL1        0.1533
     20 C         141.4829  139.6718  166.6295 C.ar    1  UNL1        0.0527
     21 C         140.3110  140.0653  167.4790 C.ar    1  UNL1        0.0511
     22 C         138.9322  139.5983  167.1175 C.ar    1  UNL1        0.0160
     23 C         138.7253  138.7379  165.9063 C.ar    1  UNL1        0.0190
     24 C         139.8972  138.3444  165.0567 C.ar    1  UNL1        0.0850
     25 N         140.5180  140.9257  168.6901 N.pl3   1  UNL1       -0.3027
     26 C         140.5220  142.4198  168.5568 C.3     1  UNL1        0.1231
     27 C         140.7290  143.2803  169.7679 C.3     1  UNL1        0.1636
     28 O         140.9319  142.6467  171.1122 O.3     1  UNL1       -0.3501
     29 C         140.9278  141.1527  171.2456 C.3     1  UNL1        0.1636
     30 C         140.7209  140.2922  170.0345 C.3     1  UNL1        0.1231
     31 C         143.7880  139.0510  164.7998 C.3     1  UNL1        0.2525
     32 O         142.4480  138.4179  164.5687 O.3     1  UNL1       -0.4701
@<TRIPOS>BOND
     1    31    32    1
     2    32    19    1
     3    19    20   ar
     4    20    21   ar
     5    21    25    1
     6    25    26    1
     7    26    27    1
     8    27    28    1
     9    28    29    1
    10    29    30    1
    11    21    22   ar
    12    22    23   ar
    13    23    24   ar
    14    24     1    1
    15     1     3    1
    16     3     4   ar
    17     4     5   ar
    18     5     6   ar
    19     6     7    1
    20     6     8   ar
    21     8    10    1
    22    10    11   ar
    23    11    12   ar
    24    12    13   ar
    25    13    14   ar
    26    14    15   ar
    27    15    16   ar
    28    16    17   ar
    29    17    18   ar
    30     8     9   ar
    31    24    19   ar
    32     9     3   ar
    33    30    25    1
    34    18    10   ar
    35    18    13   ar
    36     1     2    1
@<TRIPOS>MOLECULE
*****
 32 36 0 0 0
SMALL
GASTEIGER

@<TRIPOS>ATOM
      1 N         140.4635  137.7125  163.7542 N.pl3   1  UNL1       -0.2802
      2 H         140.5172  136.7297  163.7733 H       1  UNL1        0.1552
      3 C         140.3693  138.4330  162.4419 C.ar    1  UNL1        0.2208
      4 N         139.8630  137.7144  161.2265 N.ar    1  UNL1       -0.2111
      5 C         139.7688  138.4349  159.9142 C.ar    1  UNL1        0.1147
      6 C         140.1809  139.8739  159.8174 C.ar    1  UNL1        0.0960
      7 CL        140.0867  140.5944  158.5051 Cl      1  UNL1       -0.0790
      8 C         140.6872  140.5925  161.0329 C.ar    1  UNL1        0.1138
      9 N         140.7814  139.8720  162.3451 N.ar    1  UNL1       -0.2111
     10 C         141.0993  142.0315  160.9361 C.ar    1  UNL1        0.1031
     11 C         142.3384  142.5508  160.2689 C.ar    1  UNL1        0.1196
     12 N         142.3495  144.0441  160.4099 N.ar    1  UNL1       -0.2248
     13 C         141.1174  144.4478  161.1643 C.ar    1  UNL1        0.1479
     14 C         140.5992  145.7872  161.5970 C.ar    1  UNL1        0.0374
     15 C         139.3084  145.8828  162.3550 C.ar    1  UNL1        0.0046
     16 C         138.5357  144.6389  162.6802 C.ar    1  UNL1        0.0191
     17 C         139.0539  143.2994  162.2474 C.ar    1  UNL1        0.0815
     18 N         140.3447  143.2039  161.4894 N.ar    1  UNL1       -0.2874
     19 C         141.7806  138.8521  165.6820 C.ar    1  UNL1        0.1533
     20 C         141.7929  139.6291  166.9651 C.ar    1  UNL1        0.0527
     21 C         140.5002  140.0434  167.6033 C.ar    1  UNL1        0.0511
     22 C         139.1953  139.6808  166.9585 C.ar    1  UNL1        0.0160
     23 C         139.1831  138.9038  165.6755 C.ar    1  UNL1        0.0190
     24 C         140.4758  138.4895  165.0372 C.ar    1  UNL1        0.0850
     25 N         140.5125  140.8203  168.8863 N.pl3   1  UNL1       -0.3027
     26 C         140.7321  140.1117  170.1901 C.3     1  UNL1        0.1231
     27 C         140.7444  140.8886  171.4732 C.3     1  UNL1        0.1636
     28 O         140.5372  142.3740  171.4525 O.3     1  UNL1       -0.3501
     29 C         140.3176  143.0827  170.1488 C.3     1  UNL1        0.1636
     30 C         140.3053  142.3058  168.8657 C.3     1  UNL1        0.1231
     31 C         144.0939  139.4736  164.6756 C.3     1  UNL1        0.2525
     32 O         143.0733  138.4378  165.0437 O.3     1  UNL1       -0.4701
@<TRIPOS>BOND
     1    31    32    1
     2    32    19    1
     3    19    20   ar
     4    20    21   ar
     5    21    25    1
     6    25    26    1
     7    26    27    1
     8    27    28    1
     9    28    29    1
    10    29    30    1
    11    21    22   ar
    12    22    23   ar
    13    23    24   ar
    14    24     1    1
    15     1     3    1
    16     3     4   ar
    17     4     5   ar
    18     5     6   ar
    19     6     7    1
    20     6     8   ar
    21     8    10    1
    22    10    11   ar
    23    11    12   ar
    24    12    13   ar
    25    13    14   ar
    26    14    15   ar
    27    15    16   ar
    28    16    17   ar
    29    17    18   ar
    30     8     9   ar
    31    24    19   ar
    32     9     3   ar
    33    30    25    1
    34    18    10   ar
    35    18    13   ar
    36     1     2    1
@<TRIPOS>MOLECULE
*****
 32 36 0 0 0
SMALL
GASTEIGER

@<TRIPOS>ATOM
      1 N         141.8391  137.3136  163.7324 N.pl3   1  UNL1       -0.2802
      2 H         141.6676  136.3463  163.7956 H       1  UNL1        0.1552
      3 C         142.2726  137.9148  162.4283 C.ar    1  UNL1        0.2208
      4 N         143.6130  138.5787  162.3172 N.ar    1  UNL1       -0.2111
      5 C         144.0465  139.1798  161.0131 C.ar    1  UNL1        0.1147
      6 C         143.1394  139.1171  159.8201 C.ar    1  UNL1        0.0960
      7 CL        143.5729  139.7182  158.5160 Cl      1  UNL1       -0.0790
      8 C         141.7989  138.4531  159.9312 C.ar    1  UNL1        0.1138
      9 N         141.3655  137.8520  161.2353 N.ar    1  UNL1       -0.2111
     10 C         140.8918  138.3904  158.7381 C.ar    1  UNL1        0.1031
     11 C         139.6113  139.1518  158.5631 C.ar    1  UNL1        0.1196
     12 N         139.0342  138.7872  157.2274 N.ar    1  UNL1       -0.2248
     13 C         139.9580  137.8005  156.5770 C.ar    1  UNL1        0.1479
     14 C         139.9021  137.0936  155.2552 C.ar    1  UNL1        0.0374
     15 C         140.9943  136.1415  154.8671 C.ar    1  UNL1        0.0046
     16 C         142.1423  135.8963  155.8008 C.ar    1  UNL1        0.0191
     17 C         142.1983  136.6032  157.1226 C.ar    1  UNL1        0.0815
     18 N         141.1061  137.5552  157.5107 N.ar    1  UNL1       -0.2874
     19 C         140.3196  138.7591  165.2659 C.ar    1  UNL1        0.1533
     20 C         140.1476  139.6318  166.4738 C.ar    1  UNL1        0.0527
     21 C         141.3231  139.9317  167.3559 C.ar    1  UNL1        0.0511
     22 C         142.6706  139.3589  167.0303 C.ar    1  UNL1        0.0160
     23 C         142.8426  138.4862  165.8224 C.ar    1  UNL1        0.0190
     24 C         141.6671  138.1863  164.9402 C.ar    1  UNL1        0.0850
     25 N         141.1511  140.8044  168.5637 N.pl3   1  UNL1       -0.3027
     26 C         140.9531  142.2821  168.3991 C.3     1  UNL1        0.1231
     27 C         140.7810  143.1549  169.6070 C.3     1  UNL1        0.1636
     28 O         140.8069  142.5499  170.9792 O.3     1  UNL1       -0.3501
     29 C         141.0049  141.0721  171.1438 C.3     1  UNL1        0.1636
     30 C         141.1770  140.1994  169.9360 C.3     1  UNL1        0.1231
     31 C         138.7213  139.4462  163.3362 C.3     1  UNL1        0.2525
     32 O         139.1440  138.4593  164.3837 O.3     1  UNL1       -0.4701
@<TRIPOS>BOND
     1    31    32    1
     2    32    19    1
     3    19    20   ar
     4    20    21   ar
     5    21    25    1
     6    25    26    1
     7    26    27    1
     8    27    28    1
     9    28    29    1
    10    29    30    1
    11    21    22   ar
    12    22    23   ar
    13    23    24   ar
    14    24     1    1
    15     1     3    1
    16     3     4   ar
    17     4     5   ar
    18     5     6   ar
    19     6     7    1
    20     6     8   ar
    21     8    10    1
    22    10    11   ar
    23    11    12   ar
    24    12    13   ar
    25    13    14   ar
    26    14    15   ar
    27    15    16   ar
    28    16    17   ar
    29    17    18   ar
    30     8     9   ar
    31    24    19   ar
    32     9     3   ar
    33    30    25    1
    34    18    10   ar
    35    18    13   ar
    36     1     2    1
@<TRIPOS>MOLECULE
*****
 32 36 0 0 0
SMALL
GASTEIGER

@<TRIPOS>ATOM
      1 N         137.2787  140.6142  163.6302 N.pl3   1  UNL1       -0.2802
      2 H         136.3266  140.8615  163.6676 H       1  UNL1        0.1552
      3 C         137.9033  140.2315  162.3212 C.ar    1  UNL1        0.2208
      4 N         138.4439  138.8462  162.1248 N.ar    1  UNL1       -0.2111
      5 C         139.0685  138.4635  160.8158 C.ar    1  UNL1        0.1147
      6 C         139.1524  139.4661  159.7032 C.ar    1  UNL1        0.0960
      7 CL        139.7769  139.0833  158.3943 Cl      1  UNL1       -0.0790
      8 C         138.6117  140.8515  159.8997 C.ar    1  UNL1        0.1138
      9 N         137.9872  141.2341  161.2086 N.ar    1  UNL1       -0.2111
     10 C         138.6956  141.8540  158.7871 C.ar    1  UNL1        0.1031
     11 C         137.8935  141.8338  157.5197 C.ar    1  UNL1        0.1196
     12 N         138.2986  143.0201  156.6960 N.ar    1  UNL1       -0.2248
     13 C         139.3509  143.7736  157.4543 C.ar    1  UNL1        0.1479
     14 C         140.1173  145.0228  157.1349 C.ar    1  UNL1        0.0374
     15 C         141.1291  145.5512  158.1079 C.ar    1  UNL1        0.0046
     16 C         141.3745  144.8305  159.4004 C.ar    1  UNL1        0.0191
     17 C         140.6081  143.5813  159.7197 C.ar    1  UNL1        0.0815
     18 N         139.5962  143.0529  158.7467 N.ar    1  UNL1       -0.2874
     19 C         138.9645  141.8054  165.2079 C.ar    1  UNL1        0.1533
     20 C         139.7907  141.8113  166.4599 C.ar    1  UNL1        0.0527
     21 C         139.7572  140.6318  167.3861 C.ar    1  UNL1        0.0511
     22 C         138.8976  139.4466  167.0604 C.ar    1  UNL1        0.0160
     23 C         138.0714  139.4407  165.8084 C.ar    1  UNL1        0.0190
     24 C         138.1049  140.6201  164.8821 C.ar    1  UNL1        0.0850
     25 N         140.5834  140.6378  168.6381 N.pl3   1  UNL1       -0.3027
     26 C         141.8128  139.7832  168.7293 C.3     1  UNL1        0.1231
     27 C         142.6391  139.7891  169.9813 C.3     1  UNL1        0.1636
     28 O         142.2358  140.6495  171.1419 O.3     1  UNL1       -0.3501
     29 C         141.0064  141.5040  171.0507 C.3     1  UNL1        0.1636
     30 C         140.1802  141.4981  169.7988 C.3     1  UNL1        0.1231
     31 C         137.9713  144.0705  164.4123 C.3     1  UNL1        0.2525
     32 O         138.9981  142.9848  164.2817 O.3     1  UNL1       -0.4701
@<TRIPOS>BOND
     1    31    32    1
     2    32    19    1
     3    19    20   ar
     4    20    21   ar
     5    21    25    1
     6    25    26    1
     7    26    27    1
     8    27    28    1
     9    28    29    1
    10    29    30    1
    11    21    22   ar
    12    22    23   ar
    13    23    24   ar
    14    24     1    1
    15     1     3    1
    16     3     4   ar
    17     4     5   ar
    18     5     6   ar
    19     6     7    1
    20     6     8   ar
    21     8    10    1
    22    10    11   ar
    23    11    12   ar
    24    12    13   ar
    25    13    14   ar
    26    14    15   ar
    27    15    16   ar
    28    16    17   ar
    29    17    18   ar
    30     8     9   ar
    31    24    19   ar
    32     9     3   ar
    33    30    25    1
    34    18    10   ar
    35    18    13   ar
    36     1     2    1
@<TRIPOS>MOLECULE
*****
 32 36 0 0 0
SMALL
GASTEIGER

@<TRIPOS>ATOM
      1 N         144.9412  139.4225  163.6126 N.pl3   1  UNL1       -0.2802
      2 H         145.9182  139.3216  163.6795 H       1  UNL1        0.1552
      3 C         144.2601  139.2648  162.2856 C.ar    1  UNL1        0.2208
      4 N         143.5773  137.9743  161.9417 N.ar    1  UNL1       -0.2111
      5 C         142.8961  137.8166  160.6146 C.ar    1  UNL1        0.1147
      6 C         142.8978  138.9495  159.6314 C.ar    1  UNL1        0.0960
      7 CL        142.2167  138.7918  158.3043 Cl      1  UNL1       -0.0790
      8 C         143.5807  140.2401  159.9753 C.ar    1  UNL1        0.1138
      9 N         144.2618  140.3977  161.3024 N.ar    1  UNL1       -0.2111
     10 C         143.5824  141.3729  158.9921 C.ar    1  UNL1        0.1031
     11 C         144.4197  141.4617  157.7508 C.ar    1  UNL1        0.1196
     12 N         144.1019  142.7595  157.0692 N.ar    1  UNL1       -0.2248
     13 C         143.0681  143.4728  157.8892 C.ar    1  UNL1        0.1479
     14 C         142.3776  144.7919  157.7073 C.ar    1  UNL1        0.0374
     15 C         141.3661  145.2541  158.7139 C.ar    1  UNL1        0.0046
     16 C         141.0450  144.3971  159.9024 C.ar    1  UNL1        0.0191
     17 C         141.7355  143.0779  160.0843 C.ar    1  UNL1        0.0815
     18 N         142.7470  142.6158  159.0777 N.ar    1  UNL1       -0.2874
     19 C         143.7151  141.1461  165.1212 C.ar    1  UNL1        0.1533
     20 C         142.9076  141.4574  166.3465 C.ar    1  UNL1        0.0527
     21 C         142.5190  140.3565  167.2883 C.ar    1  UNL1        0.0511
     22 C         142.9377  138.9443  167.0049 C.ar    1  UNL1        0.0160
     23 C         143.7451  138.6330  165.7797 C.ar    1  UNL1        0.0190
     24 C         144.1338  139.7339  164.8378 C.ar    1  UNL1        0.0850
     25 N         141.7116  140.6679  168.5135 N.pl3   1  UNL1       -0.3027
     26 C         140.2190  140.5212  168.4853 C.3     1  UNL1        0.1231
     27 C         139.4115  140.8326  169.7105 C.3     1  UNL1        0.1636
     28 O         140.0966  141.2906  170.9638 O.3     1  UNL1       -0.3501
     29 C         141.5891  141.4374  170.9919 C.3     1  UNL1        0.1636
     30 C         142.3966  141.1260  169.7668 C.3     1  UNL1        0.1231
     31 C         143.6817  143.6586  164.4608 C.3     1  UNL1        0.2525
     32 O         144.1037  142.2470  164.1794 O.3     1  UNL1       -0.4701
@<TRIPOS>BOND
     1    31    32    1
     2    32    19    1
     3    19    20   ar
     4    20    21   ar
     5    21    25    1
     6    25    26    1
     7    26    27    1
     8    27    28    1
     9    28    29    1
    10    29    30    1
    11    21    22   ar
    12    22    23   ar
    13    23    24   ar
    14    24     1    1
    15     1     3    1
    16     3     4   ar
    17     4     5   ar
    18     5     6   ar
    19     6     7    1
    20     6     8   ar
    21     8    10    1
    22    10    11   ar
    23    11    12   ar
    24    12    13   ar
    25    13    14   ar
    26    14    15   ar
    27    15    16   ar
    28    16    17   ar
    29    17    18   ar
    30     8     9   ar
    31    24    19   ar
    32     9     3   ar
    33    30    25    1
    34    18    10   ar
    35    18    13   ar
    36     1     2    1
@<TRIPOS>MOLECULE
*****
 32 36 0 0 0
SMALL
GASTEIGER

@<TRIPOS>ATOM
      1 N         142.5186  137.3706  161.6065 N.pl3   1  UNL1       -0.2802
      2 H         143.0011  136.5214  161.7303 H       1  UNL1        0.1552
      3 C         141.4705  137.7886  162.5948 C.ar    1  UNL1        0.2208
      4 N         141.1881  136.9343  163.7949 N.ar    1  UNL1       -0.2111
      5 C         140.1399  137.3522  164.7832 C.ar    1  UNL1        0.1147
      6 C         139.3742  138.6246  164.5713 C.ar    1  UNL1        0.0960
      7 CL        138.3261  139.0426  165.5596 Cl      1  UNL1       -0.0790
      8 C         139.6567  139.4790  163.3711 C.ar    1  UNL1        0.1138
      9 N         140.7048  139.0609  162.3830 N.ar    1  UNL1       -0.2111
     10 C         138.8909  140.7513  163.1593 C.ar    1  UNL1        0.1031
     11 C         137.8791  141.0022  162.0808 C.ar    1  UNL1        0.1196
     12 N         137.3655  142.4021  162.2437 N.ar    1  UNL1       -0.2248
     13 C         138.0599  143.0163  163.4229 C.ar    1  UNL1        0.1479
     14 C         137.9555  144.3728  164.0545 C.ar    1  UNL1        0.0374
     15 C         138.7939  144.7091  165.2520 C.ar    1  UNL1        0.0046
     16 C         139.7367  143.6888  165.8178 C.ar    1  UNL1        0.0191
     17 C         139.8411  142.3323  165.1862 C.ar    1  UNL1        0.0815
     18 N         139.0027  141.9961  163.9888 N.ar    1  UNL1       -0.2874
     19 C         143.7553  139.4173  160.5907 C.ar    1  UNL1        0.1533
     20 C         144.0683  140.2931  159.4138 C.ar    1  UNL1        0.0527
     21 C         143.4576  139.9979  158.0759 C.ar    1  UNL1        0.0511
     22 C         142.5340  138.8271  157.9148 C.ar    1  UNL1        0.0160
     23 C         142.2210  137.9513  159.0917 C.ar    1  UNL1        0.0190
     24 C         142.8316  138.2464  160.4297 C.ar    1  UNL1        0.0850
     25 N         143.7707  140.8737  156.8990 N.pl3   1  UNL1       -0.3027
     26 C         143.2058  142.2614  156.8256 C.3     1  UNL1        0.1231
     27 C         143.5188  143.1373  155.6487 C.3     1  UNL1        0.1636
     28 O         144.3967  142.6254  154.5454 O.3     1  UNL1       -0.3501
     29 C         144.9615  141.2378  154.6189 C.3     1  UNL1        0.1636
     30 C         144.6486  140.3619  155.7957 C.3     1  UNL1        0.1231
     31 C         144.2425  141.0839  162.5233 C.3     1  UNL1        0.2525
     32 O         144.3660  139.7124  161.9286 O.3     1  UNL1       -0.4701
@<TRIPOS>BOND
     1    31    32    1
     2    32    19    1
     3    19    20   ar
     4    20    21   ar
     5    21    25    1
     6    25    26    1
     7    26    27    1
     8    27    28    1
     9    28    29    1
    10    29    30    1
    11    21    22   ar
    12    22    23   ar
    13    23    24   ar
    14    24     1    1
    15     1     3    1
    16     3     4   ar
    17     4     5   ar
    18     5     6   ar
    19     6     7    1
    20     6     8   ar
    21     8    10    1
    22    10    11   ar
    23    11    12   ar
    24    12    13   ar
    25    13    14   ar
    26    14    15   ar
    27    15    16   ar
    28    16    17   ar
    29    17    18   ar
    30     8     9   ar
    31    24    19   ar
    32     9     3   ar
    33    30    25    1
    34    18    10   ar
    35    18    13   ar
    36     1     2    1
@<TRIPOS>MOLECULE
*****
 32 36 0 0 0
SMALL
GASTEIGER

@<TRIPOS>ATOM
      1 N         143.4002  143.8367  161.2773 N.pl3   1  UNL1       -0.2802
      2 H         143.8928  144.6821  161.3860 H       1  UNL1        0.1552
      3 C         143.7499  142.6505  162.1262 C.ar    1  UNL1        0.2208
      4 N         145.0887  142.5781  162.7987 N.ar    1  UNL1       -0.2111
      5 C         145.4384  141.3919  163.6477 C.ar    1  UNL1        0.1147
      6 C         144.4492  140.2782  163.8242 C.ar    1  UNL1        0.0960
      7 CL        144.7989  139.0920  164.6731 Cl      1  UNL1       -0.0790
      8 C         143.1103  140.3506  163.1517 C.ar    1  UNL1        0.1138
      9 N         142.7607  141.5368  162.3027 N.ar    1  UNL1       -0.2111
     10 C         142.1211  139.2369  163.3282 C.ar    1  UNL1        0.1031
     11 C         142.1135  137.9375  162.5789 C.ar    1  UNL1        0.1196
     12 N         140.9536  137.1246  163.0726 N.ar    1  UNL1       -0.2248
     13 C         140.2443  137.9216  164.1270 C.ar    1  UNL1        0.1479
     14 C         139.0346  137.6273  164.9637 C.ar    1  UNL1        0.0374
     15 C         138.5466  138.6385  165.9582 C.ar    1  UNL1        0.0046
     16 C         139.2682  139.9440  166.1162 C.ar    1  UNL1        0.0191
     17 C         140.4778  140.2383  165.2795 C.ar    1  UNL1        0.0815
     18 N         140.9659  139.2271  164.2849 N.ar    1  UNL1       -0.2874
     19 C         140.8808  144.0053  160.6656 C.ar    1  UNL1        0.1533
     20 C         139.7807  143.9034  159.6509 C.ar    1  UNL1        0.0527
     21 C         140.0999  143.5308  158.2334 C.ar    1  UNL1        0.0511
     22 C         141.5192  143.2601  157.8306 C.ar    1  UNL1        0.0160
     23 C         142.6193  143.3621  158.8452 C.ar    1  UNL1        0.0190
     24 C         142.3001  143.7347  160.2627 C.ar    1  UNL1        0.0850
     25 N         138.9998  143.4288  157.2189 N.pl3   1  UNL1       -0.3027
     26 C         138.9029  144.4386  156.1139 C.3     1  UNL1        0.1231
     27 C         137.8027  144.3367  155.0992 C.3     1  UNL1        0.1636
     28 O         136.7997  143.2251  155.1897 O.3     1  UNL1       -0.3501
     29 C         136.8967  142.2154  156.2947 C.3     1  UNL1        0.1636
     30 C         137.9967  142.3173  157.3093 C.3     1  UNL1        0.1231
     31 C         140.4082  145.8209  162.4629 C.3     1  UNL1        0.2525
     32 O         140.5615  144.3779  162.0831 O.3     1  UNL1       -0.4701
@<TRIPOS>BOND
     1    31    32    1
     2    32    19    1
     3    19    20   ar
     4    20    21   ar
     5    21    25    1
     6    25    26    1
     7    26    27    1
     8    27    28    1
     9    28    29    1
    10    29    30    1
    11    21    22   ar
    12    22    23   ar
    13    23    24   ar
    14    24     1    1
    15     1     3    1
    16     3     4   ar
    17     4     5   ar
    18     5     6   ar
    19     6     7    1
    20     6     8   ar
    21     8    10    1
    22    10    11   ar
    23    11    12   ar
    24    12    13   ar
    25    13    14   ar
    26    14    15   ar
    27    15    16   ar
    28    16    17   ar
    29    17    18   ar
    30     8     9   ar
    31    24    19   ar
    32     9     3   ar
    33    30    25    1
    34    18    10   ar
    35    18    13   ar
    36     1     2    1
@<TRIPOS>MOLECULE
*****
 32 36 0 0 0
SMALL
GASTEIGER

@<TRIPOS>ATOM
      1 N         138.8435  137.5208  163.2990 N.pl3   1  UNL1       -0.2802
      2 H         138.4921  136.6040  163.3702 H       1  UNL1        0.1552
      3 C         138.8312  138.2281  161.9763 C.ar    1  UNL1        0.2208
      4 N         137.7115  139.1673  161.6384 N.ar    1  UNL1       -0.2111
      5 C         137.6993  139.8746  160.3157 C.ar    1  UNL1        0.1147
      6 C         138.8067  139.6427  159.3309 C.ar    1  UNL1        0.0960
      7 CL        138.7944  140.3500  158.0082 Cl      1  UNL1       -0.0790
      8 C         139.9264  138.7035  159.6688 C.ar    1  UNL1        0.1138
      9 N         139.9386  137.9962  160.9915 N.ar    1  UNL1       -0.2111
     10 C         141.0338  138.4716  158.6840 C.ar    1  UNL1        0.1031
     11 C         142.4746  138.8431  158.8737 C.ar    1  UNL1        0.1196
     12 N         143.2261  138.4286  157.6435 N.ar    1  UNL1       -0.2248
     13 C         142.2497  137.8008  156.6934 C.ar    1  UNL1        0.1479
     14 C         142.4193  137.2084  155.3259 C.ar    1  UNL1        0.0374
     15 C         141.2340  136.6426  154.6014 C.ar    1  UNL1        0.0046
     16 C         139.8791  136.6692  155.2444 C.ar    1  UNL1        0.0191
     17 C         139.7095  137.2616  156.6120 C.ar    1  UNL1        0.0815
     18 N         140.8948  137.8274  157.3365 N.ar    1  UNL1       -0.2874
     19 C         140.8723  138.2544  164.7467 C.ar    1  UNL1        0.1533
     20 C         141.4201  138.9441  165.9610 C.ar    1  UNL1        0.0527
     21 C         140.4867  139.5897  166.9419 C.ar    1  UNL1        0.0511
     22 C         139.0056  139.5457  166.7084 C.ar    1  UNL1        0.0160
     23 C         138.4579  138.8561  165.4941 C.ar    1  UNL1        0.0190
     24 C         139.3913  138.2104  164.5132 C.ar    1  UNL1        0.0850
     25 N         141.0344  140.2793  168.1561 N.pl3   1  UNL1       -0.3027
     26 C         142.4504  140.7741  168.1627 C.3     1  UNL1        0.1231
     27 C         142.9983  141.4638  169.3770 C.3     1  UNL1        0.1636
     28 O         142.1301  141.6585  170.5845 O.3     1  UNL1       -0.3501
     29 C         140.7141  141.1636  170.5779 C.3     1  UNL1        0.1636
     30 C         140.1662  140.4740  169.3637 C.3     1  UNL1        0.1231
     31 C         142.8278  138.4377  163.0460 C.3     1  UNL1        0.2525
     32 O         141.8057  137.6088  163.7659 O.3     1  UNL1       -0.4701
@<TRIPOS>BOND
     1    31    32    1
     2    32    19    1
     3    19    20   ar
     4    20    21   ar
     5    21    25    1
     6    25    26    1
     7    26    27    1
     8    27    28    1
     9    28    29    1
    10    29    30    1
    11    21    22   ar
    12    22    23   ar
    13    23    24   ar
    14    24     1    1
    15     1     3    1
    16     3     4   ar
    17     4     5   ar
    18     5     6   ar
    19     6     7    1
    20     6     8   ar
    21     8    10    1
    22    10    11   ar
    23    11    12   ar
    24    12    13   ar
    25    13    14   ar
    26    14    15   ar
    27    15    16   ar
    28    16    17   ar
    29    17    18   ar
    30     8     9   ar
    31    24    19   ar
    32     9     3   ar
    33    30    25    1
    34    18    10   ar
    35    18    13   ar
    36     1     2    1
