@<TRIPOS>MOLECULE
*****
 28 30 0 0 0
SMALL
GASTEIGER

@<TRIPOS>ATOM
      1 C         142.7170  138.7747  162.9422 C.ar    1  UNL1        0.2446
      2 N         143.4068  139.3682  161.7497 N.ar    1  UNL1       -0.2078
      3 C         144.5257  140.3486  161.9414 C.ar    1  UNL1        0.1135
      4 C         144.9549  140.7356  163.3256 C.ar    1  UNL1        0.0783
      5 CL        146.0738  141.7159  163.5174 Cl      1  UNL1       -0.0806
      6 C         144.2651  140.1422  164.5181 C.ar    1  UNL1        0.0336
      7 C         143.1461  139.1617  164.3264 C.ar    1  UNL1        0.1190
      8 N         142.4563  138.5683  165.5189 N.pl3   1  UNL1       -0.2104
      9 H         142.3801  137.5908  165.6075 H       1  UNL1        0.1739
     10 S         141.8827  139.4643  166.5763 S.O2    1  UNL1        0.0737
     11 O         140.9031  140.0118  165.5811 O.2     1  UNL1       -0.1499
     12 O         142.8623  138.9168  167.5716 O.2     1  UNL1       -0.1499
     13 C         141.3091  140.3603  167.6338 C.ar    1  UNL1        0.1261
     14 C         141.9411  141.6918  167.9123 C.ar    1  UNL1        0.0211
     15 C         141.3675  142.5878  168.9698 C.ar    1  UNL1        0.0136
     16 C         140.1619  142.1522  169.7487 C.ar    1  UNL1        0.0683
     17 CL        139.5883  143.0482  170.8062 Cl      1  UNL1       -0.0814
     18 C         139.5299  140.8206  169.4702 C.ar    1  UNL1        0.0695
     19 CL        138.3243  140.3851  170.2492 Cl      1  UNL1       -0.0813
     20 C         140.1035  139.9247  168.4128 C.ar    1  UNL1        0.0324
     21 O         141.5980  137.7944  162.7505 O.3     1  UNL1       -0.4338
     22 C         139.0270  137.6632  164.2909 C.3     1  UNL1        0.0554
     23 C         139.0305  138.1700  162.8791 C.ar    1  UNL1        0.0938
     24 N         137.7484  138.6113  162.2376 N.ar    1  UNL1       -0.2451
     25 C         137.7518  139.1181  160.8258 C.ar    1  UNL1        0.0987
     26 C         139.0373  139.1837  160.0556 C.ar    1  UNL1        0.0238
     27 C         140.3193  138.7424  160.6971 C.ar    1  UNL1        0.0404
     28 C         140.3159  138.2356  162.1089 C.ar    1  UNL1        0.1607
@<TRIPOS>BOND
     1    22    23    1
     2    23    24   ar
     3    24    25   ar
     4    25    26   ar
     5    26    27   ar
     6    27    28   ar
     7    28    21    1
     8    21     1    1
     9     1     2   ar
    10     2     3   ar
    11     3     4   ar
    12     4     5    1
    13     4     6   ar
    14     6     7   ar
    15     7     8    1
    16     8    10    1
    17    10    11    2
    18    10    12    2
    19    10    13    1
    20    13    14   ar
    21    14    15   ar
    22    15    16   ar
    23    16    17    1
    24    16    18   ar
    25    18    19    1
    26    18    20   ar
    27    28    23   ar
    28     7     1   ar
    29    20    13   ar
    30     8     9    1
@<TRIPOS>MOLECULE
*****
 28 30 0 0 0
SMALL
GASTEIGER

@<TRIPOS>ATOM
      1 C         142.1449  139.5127  166.9202 C.ar    1  UNL1        0.2446
      2 N         142.9349  139.4014  168.1905 N.ar    1  UNL1       -0.2078
      3 C         142.2545  139.5816  169.5151 C.ar    1  UNL1        0.1135
      4 C         140.7842  139.8733  169.5694 C.ar    1  UNL1        0.0783
      5 CL        140.1038  140.0535  170.8940 Cl      1  UNL1       -0.0806
      6 C         139.9942  139.9846  168.2992 C.ar    1  UNL1        0.0336
      7 C         140.6746  139.8043  166.9745 C.ar    1  UNL1        0.1190
      8 N         139.8846  139.9157  165.7043 N.pl3   1  UNL1       -0.2104
      9 H         139.3673  139.1445  165.3772 H       1  UNL1        0.1739
     10 S         139.8827  141.2019  164.9326 S.O2    1  UNL1        0.0737
     11 O         140.1900  140.4469  163.6734 O.2     1  UNL1       -0.1499
     12 O         139.5754  141.9569  166.1918 O.2     1  UNL1       -0.1499
     13 C         139.8808  142.4881  164.1608 C.ar    1  UNL1        0.1261
     14 C         138.8019  143.5031  164.3974 C.ar    1  UNL1        0.0211
     15 C         138.8000  144.7893  163.6256 C.ar    1  UNL1        0.0136
     16 C         139.8769  145.0606  162.6174 C.ar    1  UNL1        0.0683
     17 CL        139.8750  146.3469  161.8456 Cl      1  UNL1       -0.0814
     18 C         140.9558  144.0456  162.3808 C.ar    1  UNL1        0.0695
     19 CL        142.0327  144.3169  161.3725 Cl      1  UNL1       -0.0813
     20 C         140.9577  142.7594  163.1525 C.ar    1  UNL1        0.0324
     21 O         142.8253  139.3324  165.5956 O.3     1  UNL1       -0.4338
     22 C         143.9582  139.0325  162.8340 C.3     1  UNL1        0.0554
     23 C         144.0377  140.3548  163.5377 C.ar    1  UNL1        0.0938
     24 N         144.6836  141.5271  162.8607 N.ar    1  UNL1       -0.2451
     25 C         144.7631  142.8494  163.5644 C.ar    1  UNL1        0.0987
     26 C         144.1966  142.9994  164.9452 C.ar    1  UNL1        0.0238
     27 C         143.5507  141.8271  165.6222 C.ar    1  UNL1        0.0404
     28 C         143.4713  140.5048  164.9185 C.ar    1  UNL1        0.1607
@<TRIPOS>BOND
     1    22    23    1
     2    23    24   ar
     3    24    25   ar
     4    25    26   ar
     5    26    27   ar
     6    27    28   ar
     7    28    21    1
     8    21     1    1
     9     1     2   ar
    10     2     3   ar
    11     3     4   ar
    12     4     5    1
    13     4     6   ar
    14     6     7   ar
    15     7     8    1
    16     8    10    1
    17    10    11    2
    18    10    12    2
    19    10    13    1
    20    13    14   ar
    21    14    15   ar
    22    15    16   ar
    23    16    17    1
    24    16    18   ar
    25    18    19    1
    26    18    20   ar
    27    28    23   ar
    28     7     1   ar
    29    20    13   ar
    30     8     9    1
@<TRIPOS>MOLECULE
*****
 28 30 0 0 0
SMALL
GASTEIGER

@<TRIPOS>ATOM
      1 C         140.3357  141.8361  162.7605 C.ar    1  UNL1        0.2446
      2 N         139.0342  142.2601  162.1471 N.ar    1  UNL1       -0.2078
      3 C         138.7765  143.7100  161.8620 C.ar    1  UNL1        0.1135
      4 C         139.8203  144.7360  162.1902 C.ar    1  UNL1        0.0783
      5 CL        139.5626  146.1859  161.9050 Cl      1  UNL1       -0.0806
      6 C         141.1218  144.3121  162.8036 C.ar    1  UNL1        0.0336
      7 C         141.3796  142.8621  163.0888 C.ar    1  UNL1        0.1190
      8 N         142.6811  142.4382  163.7021 N.pl3   1  UNL1       -0.2104
      9 H         143.5129  142.4926  163.1784 H       1  UNL1        0.1739
     10 S         142.7153  141.9315  165.1136 S.O2    1  UNL1        0.0737
     11 O         141.9334  143.1302  165.5628 O.2     1  UNL1       -0.1499
     12 O         143.4971  140.7328  164.6643 O.2     1  UNL1       -0.1499
     13 C         142.7495  141.4248  166.5250 C.ar    1  UNL1        0.1261
     14 C         142.3969  139.9966  166.8178 C.ar    1  UNL1        0.0211
     15 C         142.4311  139.4899  168.2293 C.ar    1  UNL1        0.0136
     16 C         142.8178  140.4115  169.3478 C.ar    1  UNL1        0.0683
     17 CL        142.8520  139.9048  170.7592 Cl      1  UNL1       -0.0814
     18 C         143.1703  141.8398  169.0550 C.ar    1  UNL1        0.0695
     19 CL        143.5570  142.7613  170.1735 Cl      1  UNL1       -0.0813
     20 C         143.1362  142.3465  167.6435 C.ar    1  UNL1        0.0324
     21 O         140.5934  140.3863  163.0457 O.3     1  UNL1       -0.4338
     22 C         140.4388  137.3902  163.0468 C.3     1  UNL1        0.0554
     23 C         139.7210  138.1787  164.1019 C.ar    1  UNL1        0.0938
     24 N         138.9260  137.4691  165.1575 N.ar    1  UNL1       -0.2451
     25 C         138.2082  138.2575  166.2126 C.ar    1  UNL1        0.0987
     26 C         138.2855  139.7555  166.2121 C.ar    1  UNL1        0.0238
     27 C         139.0806  140.4651  165.1564 C.ar    1  UNL1        0.0404
     28 C         139.7983  139.6766  164.1013 C.ar    1  UNL1        0.1607
@<TRIPOS>BOND
     1    22    23    1
     2    23    24   ar
     3    24    25   ar
     4    25    26   ar
     5    26    27   ar
     6    27    28   ar
     7    28    21    1
     8    21     1    1
     9     1     2   ar
    10     2     3   ar
    11     3     4   ar
    12     4     5    1
    13     4     6   ar
    14     6     7   ar
    15     7     8    1
    16     8    10    1
    17    10    11    2
    18    10    12    2
    19    10    13    1
    20    13    14   ar
    21    14    15   ar
    22    15    16   ar
    23    16    17    1
    24    16    18   ar
    25    18    19    1
    26    18    20   ar
    27    28    23   ar
    28     7     1   ar
    29    20    13   ar
    30     8     9    1
@<TRIPOS>MOLECULE
*****
 28 30 0 0 0
SMALL
GASTEIGER

@<TRIPOS>ATOM
      1 C         138.4722  140.2160  161.7657 C.ar    1  UNL1        0.2446
      2 N         138.3235  141.3661  160.8141 N.ar    1  UNL1       -0.2078
      3 C         138.0308  142.7405  161.3387 C.ar    1  UNL1        0.1135
      4 C         137.8867  142.9650  162.8147 C.ar    1  UNL1        0.0783
      5 CL        137.5939  144.3394  163.3393 Cl      1  UNL1       -0.0806
      6 C         138.0353  141.8150  163.7663 C.ar    1  UNL1        0.0336
      7 C         138.3281  140.4405  163.2418 C.ar    1  UNL1        0.1190
      8 N         138.4767  139.2906  164.1933 N.pl3   1  UNL1       -0.2104
      9 H         138.0084  138.4426  164.0177 H       1  UNL1        0.1739
     10 S         139.3390  139.4325  165.4124 S.O2    1  UNL1        0.0737
     11 O         140.5468  139.5994  164.5387 O.2     1  UNL1       -0.1499
     12 O         138.1312  139.2656  166.2861 O.2     1  UNL1       -0.1499
     13 C         140.2013  139.5745  166.6316 C.ar    1  UNL1        0.1261
     14 C         141.6872  139.4004  166.5237 C.ar    1  UNL1        0.0211
     15 C         142.5495  139.5424  167.7428 C.ar    1  UNL1        0.0136
     16 C         141.9259  139.8584  169.0699 C.ar    1  UNL1        0.0683
     17 CL        142.7882  140.0003  170.2890 Cl      1  UNL1       -0.0814
     18 C         140.4399  140.0324  169.1779 C.ar    1  UNL1        0.0695
     19 CL        139.8162  140.3484  170.5049 Cl      1  UNL1       -0.0813
     20 C         139.5776  139.8905  167.9587 C.ar    1  UNL1        0.0324
     21 O         138.7649  138.8416  161.2411 O.3     1  UNL1       -0.4338
     22 C         139.3988  139.0988  158.3201 C.3     1  UNL1        0.0554
     23 C         140.4553  138.6357  159.2789 C.ar    1  UNL1        0.0938
     24 N         141.8287  138.3012  158.7772 N.ar    1  UNL1       -0.2451
     25 C         142.8853  137.8381  159.7360 C.ar    1  UNL1        0.0987
     26 C         142.5684  137.7095  161.1964 C.ar    1  UNL1        0.0238
     27 C         141.1950  138.0440  161.6981 C.ar    1  UNL1        0.0404
     28 C         140.1384  138.5071  160.7393 C.ar    1  UNL1        0.1607
@<TRIPOS>BOND
     1    22    23    1
     2    23    24   ar
     3    24    25   ar
     4    25    26   ar
     5    26    27   ar
     6    27    28   ar
     7    28    21    1
     8    21     1    1
     9     1     2   ar
    10     2     3   ar
    11     3     4   ar
    12     4     5    1
    13     4     6   ar
    14     6     7   ar
    15     7     8    1
    16     8    10    1
    17    10    11    2
    18    10    12    2
    19    10    13    1
    20    13    14   ar
    21    14    15   ar
    22    15    16   ar
    23    16    17    1
    24    16    18   ar
    25    18    19    1
    26    18    20   ar
    27    28    23   ar
    28     7     1   ar
    29    20    13   ar
    30     8     9    1
@<TRIPOS>MOLECULE
*****
 28 30 0 0 0
SMALL
GASTEIGER

@<TRIPOS>ATOM
      1 C         142.9879  143.1907  161.6900 C.ar    1  UNL1        0.2446
      2 N         142.6518  143.9706  160.4535 N.ar    1  UNL1       -0.2078
      3 C         141.5160  144.9502  160.4703 C.ar    1  UNL1        0.1135
      4 C         140.7163  145.1500  161.7236 C.ar    1  UNL1        0.0783
      5 CL        139.5806  146.1297  161.7404 Cl      1  UNL1       -0.0806
      6 C         141.0524  144.3702  162.9600 C.ar    1  UNL1        0.0336
      7 C         142.1882  143.3905  162.9433 C.ar    1  UNL1        0.1190
      8 N         142.5243  142.6106  164.1797 N.pl3   1  UNL1       -0.2104
      9 H         143.4298  142.6613  164.5627 H       1  UNL1        0.1739
     10 S         141.4807  141.7534  164.8326 S.O2    1  UNL1        0.0737
     11 O         141.5780  142.5837  166.0781 O.2     1  UNL1       -0.1499
     12 O         141.3834  140.9232  163.5871 O.2     1  UNL1       -0.1499
     13 C         140.4371  140.8963  165.4855 C.ar    1  UNL1        0.1261
     14 C         139.5147  140.0655  164.6435 C.ar    1  UNL1        0.0211
     15 C         138.4711  139.2084  165.2964 C.ar    1  UNL1        0.0136
     16 C         138.3500  139.1820  166.7912 C.ar    1  UNL1        0.0683
     17 CL        137.3064  138.3249  167.4441 Cl      1  UNL1       -0.0814
     18 C         139.2725  140.0128  167.6333 C.ar    1  UNL1        0.0695
     19 CL        139.1513  139.9864  169.1281 Cl      1  UNL1       -0.0813
     20 C         140.3160  140.8699  166.9804 C.ar    1  UNL1        0.0324
     21 O         144.1236  142.2110  161.6732 O.3     1  UNL1       -0.4338
     22 C         144.8799  140.0359  163.5960 C.3     1  UNL1        0.0554
     23 C         144.2489  139.6880  162.2804 C.ar    1  UNL1        0.0938
     24 N         143.9960  138.2525  161.9262 N.ar    1  UNL1       -0.2451
     25 C         143.3649  137.9046  160.6106 C.ar    1  UNL1        0.0987
     26 C         142.9868  138.9921  159.6493 C.ar    1  UNL1        0.0238
     27 C         143.2397  140.4276  160.0035 C.ar    1  UNL1        0.0404
     28 C         143.8707  140.7755  161.3190 C.ar    1  UNL1        0.1607
@<TRIPOS>BOND
     1    22    23    1
     2    23    24   ar
     3    24    25   ar
     4    25    26   ar
     5    26    27   ar
     6    27    28   ar
     7    28    21    1
     8    21     1    1
     9     1     2   ar
    10     2     3   ar
    11     3     4   ar
    12     4     5    1
    13     4     6   ar
    14     6     7   ar
    15     7     8    1
    16     8    10    1
    17    10    11    2
    18    10    12    2
    19    10    13    1
    20    13    14   ar
    21    14    15   ar
    22    15    16   ar
    23    16    17    1
    24    16    18   ar
    25    18    19    1
    26    18    20   ar
    27    28    23   ar
    28     7     1   ar
    29    20    13   ar
    30     8     9    1
@<TRIPOS>MOLECULE
*****
 28 30 0 0 0
SMALL
GASTEIGER

@<TRIPOS>ATOM
      1 C         142.7169  143.8464  161.3766 C.ar    1  UNL1        0.2446
      2 N         142.0213  143.7697  160.0498 N.ar    1  UNL1       -0.2078
      3 C         142.6900  143.0926  158.8904 C.ar    1  UNL1        0.1135
      4 C         144.0544  142.4922  159.0576 C.ar    1  UNL1        0.0783
      5 CL        144.7231  141.8151  157.8982 Cl      1  UNL1       -0.0806
      6 C         144.7500  142.5689  160.3843 C.ar    1  UNL1        0.0336
      7 C         144.0813  143.2460  161.5438 C.ar    1  UNL1        0.1190
      8 N         144.7769  143.3227  162.8705 N.pl3   1  UNL1       -0.2104
      9 H         145.5934  143.8642  162.9677 H       1  UNL1        0.1739
     10 S         144.2286  142.5744  164.0493 S.O2    1  UNL1        0.0737
     11 O         144.2986  141.2949  163.2696 O.2     1  UNL1       -0.1499
     12 O         144.1585  143.8539  164.8290 O.2     1  UNL1       -0.1499
     13 C         143.6803  141.8261  165.2280 C.ar    1  UNL1        0.1261
     14 C         143.3961  140.3574  165.1178 C.ar    1  UNL1        0.0211
     15 C         142.8478  139.6091  166.2966 C.ar    1  UNL1        0.0136
     16 C         142.5836  140.3295  167.5854 C.ar    1  UNL1        0.0683
     17 CL        142.0353  139.5812  168.7642 Cl      1  UNL1       -0.0814
     18 C         142.8678  141.7983  167.6956 C.ar    1  UNL1        0.0695
     19 CL        142.6036  142.5186  168.9845 Cl      1  UNL1       -0.0813
     20 C         143.4161  142.5466  166.5169 C.ar    1  UNL1        0.0324
     21 O         142.0481  144.5235  162.5360 O.3     1  UNL1       -0.4338
     22 C         139.7883  146.2651  161.6086 C.3     1  UNL1        0.0554
     23 C         139.5048  145.0438  162.4320 C.ar    1  UNL1        0.0938
     24 N         138.0914  144.6933  162.7918 N.ar    1  UNL1       -0.2451
     25 C         137.8079  143.4720  163.6152 C.ar    1  UNL1        0.0987
     26 C         138.9378  142.6012  164.0789 C.ar    1  UNL1        0.0238
     27 C         140.3512  142.9517  163.7191 C.ar    1  UNL1        0.0404
     28 C         140.6347  144.1730  162.8957 C.ar    1  UNL1        0.1607
@<TRIPOS>BOND
     1    22    23    1
     2    23    24   ar
     3    24    25   ar
     4    25    26   ar
     5    26    27   ar
     6    27    28   ar
     7    28    21    1
     8    21     1    1
     9     1     2   ar
    10     2     3   ar
    11     3     4   ar
    12     4     5    1
    13     4     6   ar
    14     6     7   ar
    15     7     8    1
    16     8    10    1
    17    10    11    2
    18    10    12    2
    19    10    13    1
    20    13    14   ar
    21    14    15   ar
    22    15    16   ar
    23    16    17    1
    24    16    18   ar
    25    18    19    1
    26    18    20   ar
    27    28    23   ar
    28     7     1   ar
    29    20    13   ar
    30     8     9    1
@<TRIPOS>MOLECULE
*****
 28 30 0 0 0
SMALL
GASTEIGER

@<TRIPOS>ATOM
      1 C         140.2005  144.4323  160.8420 C.ar    1  UNL1        0.2446
      2 N         141.4214  145.0852  160.2647 N.ar    1  UNL1       -0.2078
      3 C         141.7967  144.8407  158.8331 C.ar    1  UNL1        0.1135
      4 C         140.9512  143.9433  157.9789 C.ar    1  UNL1        0.0783
      5 CL        141.3265  143.6988  156.5473 Cl      1  UNL1       -0.0806
      6 C         139.7303  143.2904  158.5561 C.ar    1  UNL1        0.0336
      7 C         139.3550  143.5349  159.9877 C.ar    1  UNL1        0.1190
      8 N         138.1341  142.8820  160.5650 N.pl3   1  UNL1       -0.2104
      9 H         137.2387  143.2139  160.3256 H       1  UNL1        0.1739
     10 S         138.2776  141.7234  161.5069 S.O2    1  UNL1        0.0737
     11 O         137.3731  142.4089  162.4877 O.2     1  UNL1       -0.1499
     12 O         139.1820  141.0380  160.5260 O.2     1  UNL1       -0.1499
     13 C         138.4210  140.5649  162.4488 C.ar    1  UNL1        0.1261
     14 C         138.5957  139.1764  161.9088 C.ar    1  UNL1        0.0211
     15 C         138.7391  138.0179  162.8507 C.ar    1  UNL1        0.0136
     16 C         138.7079  138.2478  164.3326 C.ar    1  UNL1        0.0683
     17 CL        138.8514  137.0893  165.2745 Cl      1  UNL1       -0.0814
     18 C         138.5333  139.6363  164.8727 C.ar    1  UNL1        0.0695
     19 CL        138.5021  139.8662  166.3546 Cl      1  UNL1       -0.0813
     20 C         138.3898  140.7949  163.9308 C.ar    1  UNL1        0.0324
     21 O         139.8252  144.6768  162.2735 O.3     1  UNL1       -0.4338
     22 C         138.7852  144.8840  165.0798 C.3     1  UNL1        0.0554
     23 C         139.9084  143.9415  164.7640 C.ar    1  UNL1        0.0938
     24 N         140.5117  143.1025  165.8513 N.ar    1  UNL1       -0.2451
     25 C         141.6350  142.1599  165.5354 C.ar    1  UNL1        0.0987
     26 C         142.1550  142.0563  164.1323 C.ar    1  UNL1        0.0238
     27 C         141.5518  142.8952  163.0450 C.ar    1  UNL1        0.0404
     28 C         140.4285  143.8378  163.3609 C.ar    1  UNL1        0.1607
@<TRIPOS>BOND
     1    22    23    1
     2    23    24   ar
     3    24    25   ar
     4    25    26   ar
     5    26    27   ar
     6    27    28   ar
     7    28    21    1
     8    21     1    1
     9     1     2   ar
    10     2     3   ar
    11     3     4   ar
    12     4     5    1
    13     4     6   ar
    14     6     7   ar
    15     7     8    1
    16     8    10    1
    17    10    11    2
    18    10    12    2
    19    10    13    1
    20    13    14   ar
    21    14    15   ar
    22    15    16   ar
    23    16    17    1
    24    16    18   ar
    25    18    19    1
    26    18    20   ar
    27    28    23   ar
    28     7     1   ar
    29    20    13   ar
    30     8     9    1
@<TRIPOS>MOLECULE
*****
 28 30 0 0 0
SMALL
GASTEIGER

@<TRIPOS>ATOM
      1 C         141.6178  140.4994  161.5480 C.ar    1  UNL1        0.2446
      2 N         140.6184  140.5684  160.4315 N.ar    1  UNL1       -0.2078
      3 C         139.3597  139.7553  160.5002 C.ar    1  UNL1        0.1135
      4 C         139.1004  138.8733  161.6854 C.ar    1  UNL1        0.0783
      5 CL        137.8418  138.0602  161.7542 Cl      1  UNL1       -0.0806
      6 C         140.0997  138.8042  162.8019 C.ar    1  UNL1        0.0336
      7 C         141.3585  139.6173  162.7332 C.ar    1  UNL1        0.1190
      8 N         142.3578  139.5483  163.8497 N.pl3   1  UNL1       -0.2104
      9 H         143.3151  139.4397  163.6474 H       1  UNL1        0.1739
     10 S         141.8985  139.6447  165.2744 S.O2    1  UNL1        0.0737
     11 O         141.4766  141.0653  165.0422 O.2     1  UNL1       -0.1499
     12 O         142.3204  138.2241  165.5065 O.2     1  UNL1       -0.1499
     13 C         141.4392  139.7411  166.6991 C.ar    1  UNL1        0.1261
     14 C         139.9897  139.9754  167.0056 C.ar    1  UNL1        0.0211
     15 C         139.5304  140.0718  168.4303 C.ar    1  UNL1        0.0136
     16 C         140.5207  139.9339  169.5485 C.ar    1  UNL1        0.0683
     17 CL        140.0614  140.0304  170.9732 Cl      1  UNL1       -0.0814
     18 C         141.9703  139.6997  169.2420 C.ar    1  UNL1        0.0695
     19 CL        142.9605  139.5618  170.3602 Cl      1  UNL1       -0.0813
     20 C         142.4295  139.6032  167.8173 C.ar    1  UNL1        0.0324
     21 O         142.8764  141.3124  161.4793 O.3     1  UNL1       -0.4338
     22 C         145.2756  141.7306  163.2312 C.3     1  UNL1        0.0554
     23 C         144.2030  142.7771  163.1660 C.ar    1  UNL1        0.0938
     24 N         144.3299  144.0327  163.9767 N.ar    1  UNL1       -0.2451
     25 C         143.2573  145.0793  163.9114 C.ar    1  UNL1        0.0987
     26 C         142.0578  144.8702  163.0355 C.ar    1  UNL1        0.0238
     27 C         141.9308  143.6146  162.2248 C.ar    1  UNL1        0.0404
     28 C         143.0034  142.5681  162.2900 C.ar    1  UNL1        0.1607
@<TRIPOS>BOND
     1    22    23    1
     2    23    24   ar
     3    24    25   ar
     4    25    26   ar
     5    26    27   ar
     6    27    28   ar
     7    28    21    1
     8    21     1    1
     9     1     2   ar
    10     2     3   ar
    11     3     4   ar
    12     4     5    1
    13     4     6   ar
    14     6     7   ar
    15     7     8    1
    16     8    10    1
    17    10    11    2
    18    10    12    2
    19    10    13    1
    20    13    14   ar
    21    14    15   ar
    22    15    16   ar
    23    16    17    1
    24    16    18   ar
    25    18    19    1
    26    18    20   ar
    27    28    23   ar
    28     7     1   ar
    29    20    13   ar
    30     8     9    1
@<TRIPOS>MOLECULE
*****
 28 30 0 0 0
SMALL
GASTEIGER

@<TRIPOS>ATOM
      1 C         141.6976  140.9596  162.0422 C.ar    1  UNL1        0.2446
      2 N         143.0204  140.8926  161.3379 N.ar    1  UNL1       -0.2078
      3 C         144.2127  140.3082  162.0355 C.ar    1  UNL1        0.1135
      4 C         144.0825  139.7908  163.4374 C.ar    1  UNL1        0.0783
      5 CL        145.2749  139.2064  164.1350 Cl      1  UNL1       -0.0806
      6 C         142.7599  139.8577  164.1417 C.ar    1  UNL1        0.0336
      7 C         141.5674  140.4421  163.4441 C.ar    1  UNL1        0.1190
      8 N         140.2447  140.5091  164.1484 N.pl3   1  UNL1       -0.2104
      9 H         139.4191  140.2690  163.6690 H       1  UNL1        0.1739
     10 S         140.1801  140.9418  165.5832 S.O2    1  UNL1        0.0737
     11 O         139.9174  139.5246  165.9987 O.2     1  UNL1       -0.1499
     12 O         140.4428  142.3589  165.1676 O.2     1  UNL1       -0.1499
     13 C         140.1155  141.3745  167.0180 C.ar    1  UNL1        0.1261
     14 C         140.5246  142.7659  167.4009 C.ar    1  UNL1        0.0211
     15 C         140.4599  143.1986  168.8357 C.ar    1  UNL1        0.0136
     16 C         139.9862  142.2399  169.8875 C.ar    1  UNL1        0.0683
     17 CL        139.9215  142.6726  171.3223 Cl      1  UNL1       -0.0814
     18 C         139.5770  140.8484  169.5046 C.ar    1  UNL1        0.0695
     19 CL        139.1032  139.8898  170.5565 Cl      1  UNL1       -0.0813
     20 C         139.6416  140.4157  168.0699 C.ar    1  UNL1        0.0324
     21 O         140.5053  141.5440  161.3446 O.3     1  UNL1       -0.4338
     22 C         137.8238  142.3671  162.4087 C.3     1  UNL1        0.0554
     23 C         138.8374  143.4101  162.0417 C.ar    1  UNL1        0.0938
     24 N         138.5103  144.8646  162.2067 N.ar    1  UNL1       -0.2451
     25 C         139.5239  145.9076  161.8397 C.ar    1  UNL1        0.0987
     26 C         140.8646  145.4961  161.3076 C.ar    1  UNL1        0.0238
     27 C         141.1917  144.0416  161.1426 C.ar    1  UNL1        0.0404
     28 C         140.1781  142.9986  161.5097 C.ar    1  UNL1        0.1607
@<TRIPOS>BOND
     1    22    23    1
     2    23    24   ar
     3    24    25   ar
     4    25    26   ar
     5    26    27   ar
     6    27    28   ar
     7    28    21    1
     8    21     1    1
     9     1     2   ar
    10     2     3   ar
    11     3     4   ar
    12     4     5    1
    13     4     6   ar
    14     6     7   ar
    15     7     8    1
    16     8    10    1
    17    10    11    2
    18    10    12    2
    19    10    13    1
    20    13    14   ar
    21    14    15   ar
    22    15    16   ar
    23    16    17    1
    24    16    18   ar
    25    18    19    1
    26    18    20   ar
    27    28    23   ar
    28     7     1   ar
    29    20    13   ar
    30     8     9    1
