@<TRIPOS>MOLECULE
*****
 33 36 0 0 0
SMALL
GASTEIGER

@<TRIPOS>ATOM
      1 N         144.0173  139.7775  163.1744 N.3     1  UNL1       -0.2863
      2 H         143.8356  138.7758  163.1106 H       1  UNL1        0.1240
      3 C         142.3383  140.1187  168.1689 C.2     1  UNL1        0.2593
      4 O         142.9499  138.8967  168.7877 O.2     1  UNL1       -0.2693
      5 N         142.5673  140.4189  166.7172 N.am    1  UNL1       -0.2251
      6 C         142.0236  141.5965  165.9639 C.3     1  UNL1        0.1031
      7 C         142.5006  141.4997  164.5451 C.3     1  UNL1        0.0471
      8 C         143.3391  140.2621  164.4215 C.3     1  UNL1        0.1341
      9 C         143.3803  139.5941  165.7639 C.2     1  UNL1        0.2459
     10 O         144.1071  138.3244  166.0949 O.2     1  UNL1       -0.2730
     11 C         142.0504  142.3612  169.4490 C.ar    1  UNL1        0.2293
     12 N         141.2097  143.2828  170.2819 N.ar    1  UNL1       -0.2100
     13 C         139.8162  142.8837  170.6677 C.ar    1  UNL1        0.1021
     14 C         139.2633  141.5629  170.2206 C.ar    1  UNL1        0.0210
     15 C         140.1041  140.6412  169.3876 C.ar    1  UNL1        0.0108
     16 C         141.4976  141.0403  169.0018 C.ar    1  UNL1        0.1070
     17 C         144.5560  142.6645  170.0651 C.3     1  UNL1        0.2542
     18 O         143.4439  142.7603  169.0632 O.3     1  UNL1       -0.4560
     19 C         143.6538  140.3691  161.8448 C.3     1  UNL1        0.1151
     20 C         142.7808  139.6023  160.8962 C.ar    1  UNL1        0.0739
     21 C         143.2451  138.5813  159.9002 C.ar    1  UNL1        0.1147
     22 N         142.0414  138.0698  159.1655 N.ar    1  UNL1       -0.2226
     23 C         140.8334  138.7747  159.7074 C.ar    1  UNL1        0.1786
     24 N         141.2903  139.7218  160.7771 N.ar    1  UNL1       -0.3070
     25 C         140.4112  140.6292  161.5856 C.3     1  UNL1        0.1340
     26 C         139.7815  140.1302  162.8522 C.ar    1  UNL1        0.0005
     27 C         138.8749  141.0264  163.6428 C.ar    1  UNL1       -0.0017
     28 C         138.2452  140.5274  164.9095 C.ar    1  UNL1        0.0100
     29 C         138.5220  139.1322  165.3856 C.ar    1  UNL1        0.0684
     30 C         139.4285  138.2360  164.5950 C.ar    1  UNL1        0.0100
     31 C         140.0582  138.7350  163.3283 C.ar    1  UNL1       -0.0017
     32 C         137.8922  138.6332  166.6523 C.1     1  UNL1        0.1004
     33 N         137.2625  138.1342  167.9189 N.1     1  UNL1       -0.1908
@<TRIPOS>BOND
     1    17    18    1
     2    18    11    1
     3    11    12   ar
     4    12    13   ar
     5    13    14   ar
     6    14    15   ar
     7    15    16   ar
     8    16     3    1
     9     3     4    2
    10     3     5   am
    11     5     6    1
    12     6     7    1
    13     7     8    1
    14     8     1    1
    15     1    19    1
    16    19    20    1
    17    20    21   ar
    18    21    22   ar
    19    22    23   ar
    20    23    24   ar
    21    24    25    1
    22    25    26    1
    23    26    27   ar
    24    27    28   ar
    25    28    29   ar
    26    29    32    1
    27    32    33    3
    28    29    30   ar
    29    30    31   ar
    30     8     9    1
    31     9    10    2
    32    16    11   ar
    33     9     5   am
    34    24    20   ar
    35    31    26   ar
    36     1     2    1
@<TRIPOS>MOLECULE
*****
 33 36 0 0 0
SMALL
GASTEIGER

@<TRIPOS>ATOM
      1 N         144.4486  139.1181  162.8073 N.3     1  UNL1       -0.2863
      2 H         144.3584  138.1287  162.5766 H       1  UNL1        0.1240
      3 C         142.4955  141.3814  167.1598 C.2     1  UNL1        0.2593
      4 O         143.0245  142.7806  167.0479 O.2     1  UNL1       -0.2693
      5 N         142.8196  140.3701  166.1004 N.am    1  UNL1       -0.2251
      6 C         142.3646  138.9410  166.0770 C.3     1  UNL1        0.1031
      7 C         142.9194  138.2980  164.8406 C.3     1  UNL1        0.0471
      8 C         143.7174  139.3298  164.0998 C.3     1  UNL1        0.1341
      9 C         143.6557  140.6104  164.8784 C.2     1  UNL1        0.2459
     10 O         144.3144  141.9041  164.5012 O.2     1  UNL1       -0.2730
     11 C         142.2579  140.8465  169.6911 C.ar    1  UNL1        0.2293
     12 N         141.4048  140.4586  170.8623 N.ar    1  UNL1       -0.2100
     13 C         139.9364  140.2178  170.6736 C.ar    1  UNL1        0.1021
     14 C         139.3210  140.3648  169.3136 C.ar    1  UNL1        0.0210
     15 C         140.1740  140.7527  168.1423 C.ar    1  UNL1        0.0108
     16 C         141.6425  140.9935  168.3310 C.ar    1  UNL1        0.1070
     17 C         144.2279  142.4699  170.1743 C.3     1  UNL1        0.2542
     18 O         143.7264  141.0873  169.8798 O.3     1  UNL1       -0.4560
     19 C         144.0463  139.8865  161.5835 C.3     1  UNL1        0.1151
     20 C         142.9305  139.3844  160.7158 C.ar    1  UNL1        0.0739
     21 C         143.0713  138.4470  159.5532 C.ar    1  UNL1        0.1147
     22 N         141.7059  138.2147  158.9771 N.ar    1  UNL1       -0.2226
     23 C         140.7214  139.0085  159.7837 C.ar    1  UNL1        0.1786
     24 N         141.4782  139.7314  160.8582 N.ar    1  UNL1       -0.3070
     25 C         140.8866  140.6415  161.8934 C.3     1  UNL1        0.1340
     26 C         140.1125  140.0672  163.0427 C.ar    1  UNL1        0.0005
     27 C         139.8606  138.5902  163.1138 C.ar    1  UNL1       -0.0017
     28 C         139.0865  138.0159  164.2631 C.ar    1  UNL1        0.0100
     29 C         138.5642  138.9185  165.3413 C.ar    1  UNL1        0.0684
     30 C         138.8161  140.3955  165.2701 C.ar    1  UNL1        0.0100
     31 C         139.5902  140.9698  164.1208 C.ar    1  UNL1       -0.0017
     32 C         137.7901  138.3442  166.4906 C.1     1  UNL1        0.1004
     33 N         137.0160  137.7698  167.6399 N.1     1  UNL1       -0.1908
@<TRIPOS>BOND
     1    17    18    1
     2    18    11    1
     3    11    12   ar
     4    12    13   ar
     5    13    14   ar
     6    14    15   ar
     7    15    16   ar
     8    16     3    1
     9     3     4    2
    10     3     5   am
    11     5     6    1
    12     6     7    1
    13     7     8    1
    14     8     1    1
    15     1    19    1
    16    19    20    1
    17    20    21   ar
    18    21    22   ar
    19    22    23   ar
    20    23    24   ar
    21    24    25    1
    22    25    26    1
    23    26    27   ar
    24    27    28   ar
    25    28    29   ar
    26    29    32    1
    27    32    33    3
    28    29    30   ar
    29    30    31   ar
    30     8     9    1
    31     9    10    2
    32    16    11   ar
    33     9     5   am
    34    24    20   ar
    35    31    26   ar
    36     1     2    1
@<TRIPOS>MOLECULE
*****
 33 36 0 0 0
SMALL
GASTEIGER

@<TRIPOS>ATOM
      1 N         143.3094  138.1401  162.2278 N.3     1  UNL1       -0.2863
      2 H         143.7490  137.2664  162.5172 H       1  UNL1        0.1240
      3 C         142.7928  142.0772  165.7082 C.2     1  UNL1        0.2593
      4 O         143.2955  143.2537  164.9251 O.2     1  UNL1       -0.2693
      5 N         142.7640  140.7152  165.0802 N.am    1  UNL1       -0.2251
      6 C         142.2909  139.4518  165.7359 C.3     1  UNL1        0.1031
      7 C         142.4376  138.3334  164.7472 C.3     1  UNL1        0.0471
      8 C         143.0014  138.9055  163.4804 C.3     1  UNL1        0.1341
      9 C         143.2031  140.3776  163.6863 C.2     1  UNL1        0.2459
     10 O         143.7482  141.3426  162.6755 O.2     1  UNL1       -0.2730
     11 C         140.8599  142.4687  167.3996 C.ar    1  UNL1        0.2293
     12 N         140.3861  142.6542  168.8106 N.ar    1  UNL1       -0.2100
     13 C         141.3714  142.6335  169.9414 C.ar    1  UNL1        0.1021
     14 C         142.8305  142.4274  169.6612 C.ar    1  UNL1        0.0210
     15 C         143.3044  142.2420  168.2501 C.ar    1  UNL1        0.0108
     16 C         142.3191  142.2626  167.1193 C.ar    1  UNL1        0.1070
     17 C         139.6547  143.7515  165.4886 C.3     1  UNL1        0.2542
     18 O         139.8746  142.4894  166.2687 O.3     1  UNL1       -0.4560
     19 C         142.2047  137.7760  161.2806 C.3     1  UNL1        0.1151
     20 C         141.4787  138.8505  160.5267 C.ar    1  UNL1        0.0739
     21 C         142.1053  139.8697  159.6218 C.ar    1  UNL1        0.1147
     22 N         141.0125  140.7435  159.0811 N.ar    1  UNL1       -0.2226
     23 C         139.7107  140.2643  159.6517 C.ar    1  UNL1        0.1786
     24 N         139.9988  139.0944  160.5452 N.ar    1  UNL1       -0.3070
     25 C         138.9850  138.3066  161.3209 C.3     1  UNL1        0.1340
     26 C         138.8393  138.5209  162.7982 C.ar    1  UNL1        0.0005
     27 C         138.9956  137.3661  163.7426 C.ar    1  UNL1       -0.0017
     28 C         138.8499  137.5803  165.2201 C.ar    1  UNL1        0.0100
     29 C         138.5478  138.9495  165.7532 C.ar    1  UNL1        0.0684
     30 C         138.3915  140.1043  164.8088 C.ar    1  UNL1        0.0100
     31 C         138.5372  139.8900  163.3313 C.ar    1  UNL1       -0.0017
     32 C         138.4021  139.1637  167.2306 C.1     1  UNL1        0.1004
     33 N         138.2564  139.3780  168.7081 N.1     1  UNL1       -0.1908
@<TRIPOS>BOND
     1    17    18    1
     2    18    11    1
     3    11    12   ar
     4    12    13   ar
     5    13    14   ar
     6    14    15   ar
     7    15    16   ar
     8    16     3    1
     9     3     4    2
    10     3     5   am
    11     5     6    1
    12     6     7    1
    13     7     8    1
    14     8     1    1
    15     1    19    1
    16    19    20    1
    17    20    21   ar
    18    21    22   ar
    19    22    23   ar
    20    23    24   ar
    21    24    25    1
    22    25    26    1
    23    26    27   ar
    24    27    28   ar
    25    28    29   ar
    26    29    32    1
    27    32    33    3
    28    29    30   ar
    29    30    31   ar
    30     8     9    1
    31     9    10    2
    32    16    11   ar
    33     9     5   am
    34    24    20   ar
    35    31    26   ar
    36     1     2    1
@<TRIPOS>MOLECULE
*****
 33 36 0 0 0
SMALL
GASTEIGER

@<TRIPOS>ATOM
      1 N         145.0144  141.6483  162.0959 N.3     1  UNL1       -0.2863
      2 H         145.5918  140.8153  162.2107 H       1  UNL1        0.1240
      3 C         142.9713  141.0103  166.9229 C.2     1  UNL1        0.2593
      4 O         143.0634  139.5244  167.1065 O.2     1  UNL1       -0.2693
      5 N         143.4561  141.6402  165.6508 N.am    1  UNL1       -0.2251
      6 C         143.4287  143.1042  165.3256 C.3     1  UNL1        0.1031
      7 C         144.0090  143.2855  163.9543 C.3     1  UNL1        0.0471
      8 C         144.3952  141.9334  163.4320 C.3     1  UNL1        0.1341
      9 C         144.0535  140.9166  164.4805 C.2     1  UNL1        0.2459
     10 O         144.2710  139.4361  164.3768 O.2     1  UNL1       -0.2730
     11 C         140.9897  142.3795  167.8967 C.ar    1  UNL1        0.2293
     12 N         140.4129  143.2355  168.9851 N.ar    1  UNL1       -0.2100
     13 C         141.2408  143.5782  170.1880 C.ar    1  UNL1        0.1021
     14 C         142.6456  143.0649  170.3026 C.ar    1  UNL1        0.0210
     15 C         143.2225  142.2089  169.2142 C.ar    1  UNL1        0.0108
     16 C         142.3945  141.8662  168.0112 C.ar    1  UNL1        0.1070
     17 C         139.8091  143.1016  165.6979 C.3     1  UNL1        0.2542
     18 O         140.1617  142.0368  166.6937 O.3     1  UNL1       -0.4560
     19 C         144.1409  141.4082  160.9004 C.3     1  UNL1        0.1151
     20 C         143.4169  140.1031  160.7504 C.ar    1  UNL1        0.0739
     21 C         143.9219  138.8936  160.0208 C.ar    1  UNL1        0.1147
     22 N         142.8780  137.8212  160.1232 N.ar    1  UNL1       -0.2226
     23 C         141.7280  138.3680  160.9161 C.ar    1  UNL1        0.1786
     24 N         142.0611  139.7782  161.3037 N.ar    1  UNL1       -0.3070
     25 C         141.1911  140.7015  162.1041 C.3     1  UNL1        0.1340
     26 C         140.3481  140.1585  163.2196 C.ar    1  UNL1        0.0005
     27 C         138.8988  140.5332  163.3153 C.ar    1  UNL1       -0.0017
     28 C         138.0558  139.9902  164.4309 C.ar    1  UNL1        0.0100
     29 C         138.6621  139.0726  165.4508 C.ar    1  UNL1        0.0684
     30 C         140.1114  138.6979  165.3552 C.ar    1  UNL1        0.0100
     31 C         140.9544  139.2409  164.2396 C.ar    1  UNL1       -0.0017
     32 C         137.8191  138.5296  166.5665 C.1     1  UNL1        0.1004
     33 N         136.9761  137.9866  167.6821 N.1     1  UNL1       -0.1908
@<TRIPOS>BOND
     1    17    18    1
     2    18    11    1
     3    11    12   ar
     4    12    13   ar
     5    13    14   ar
     6    14    15   ar
     7    15    16   ar
     8    16     3    1
     9     3     4    2
    10     3     5   am
    11     5     6    1
    12     6     7    1
    13     7     8    1
    14     8     1    1
    15     1    19    1
    16    19    20    1
    17    20    21   ar
    18    21    22   ar
    19    22    23   ar
    20    23    24   ar
    21    24    25    1
    22    25    26    1
    23    26    27   ar
    24    27    28   ar
    25    28    29   ar
    26    29    32    1
    27    32    33    3
    28    29    30   ar
    29    30    31   ar
    30     8     9    1
    31     9    10    2
    32    16    11   ar
    33     9     5   am
    34    24    20   ar
    35    31    26   ar
    36     1     2    1
@<TRIPOS>MOLECULE
*****
 33 36 0 0 0
SMALL
GASTEIGER

@<TRIPOS>ATOM
      1 N         140.6436  146.1229  162.3252 N.3     1  UNL1       -0.2863
      2 H         141.5192  146.5343  162.0019 H       1  UNL1        0.1240
      3 C         143.4000  142.7350  165.2927 C.2     1  UNL1        0.2593
      4 O         144.7831  142.8822  164.7310 O.2     1  UNL1       -0.2693
      5 N         142.2698  143.5406  164.7238 N.am    1  UNL1       -0.2251
      6 C         140.8414  143.5004  165.1798 C.3     1  UNL1        0.1031
      7 C         140.0583  144.4628  164.3368 C.3     1  UNL1        0.0471
      8 C         141.0028  145.0978  163.3598 C.3     1  UNL1        0.1341
      9 C         142.3696  144.5279  163.5989 C.2     1  UNL1        0.2459
     10 O         143.6171  144.8830  162.8455 O.2     1  UNL1       -0.2730
     11 C         142.9211  140.3265  166.1410 C.ar    1  UNL1        0.2293
     12 N         142.6683  139.3737  167.2716 N.ar    1  UNL1       -0.2100
     13 C         142.6415  139.8766  168.6845 C.ar    1  UNL1        0.1021
     14 C         142.8676  141.3324  168.9668 C.ar    1  UNL1        0.0210
     15 C         143.1204  142.2852  167.8362 C.ar    1  UNL1        0.0108
     16 C         143.1472  141.7823  166.4233 C.ar    1  UNL1        0.1070
     17 C         144.2066  139.2317  164.1664 C.3     1  UNL1        0.2542
     18 O         142.9479  139.8235  164.7281 O.3     1  UNL1       -0.4560
     19 C         139.8781  145.7164  161.1010 C.3     1  UNL1        0.1151
     20 C         140.4390  144.6769  160.1765 C.ar    1  UNL1        0.0739
     21 C         141.6961  144.8023  159.3677 C.ar    1  UNL1        0.1147
     22 N         141.8754  143.5323  158.5897 N.ar    1  UNL1       -0.2226
     23 C         140.7291  142.6221  158.9178 C.ar    1  UNL1        0.1786
     24 N         139.8414  143.3295  159.8984 N.ar    1  UNL1       -0.3070
     25 C         138.5779  142.7850  160.4960 C.3     1  UNL1        0.1340
     26 C         138.6160  142.0876  161.8234 C.ar    1  UNL1        0.0005
     27 C         139.6899  141.0807  162.1110 C.ar    1  UNL1       -0.0017
     28 C         139.7279  140.3832  163.4385 C.ar    1  UNL1        0.0100
     29 C         138.6920  140.6926  164.4783 C.ar    1  UNL1        0.0684
     30 C         137.6181  141.6995  164.1906 C.ar    1  UNL1        0.0100
     31 C         137.5801  142.3970  162.8631 C.ar    1  UNL1       -0.0017
     32 C         138.7301  139.9951  165.8057 C.1     1  UNL1        0.1004
     33 N         138.7681  139.2976  167.1331 N.1     1  UNL1       -0.1908
@<TRIPOS>BOND
     1    17    18    1
     2    18    11    1
     3    11    12   ar
     4    12    13   ar
     5    13    14   ar
     6    14    15   ar
     7    15    16   ar
     8    16     3    1
     9     3     4    2
    10     3     5   am
    11     5     6    1
    12     6     7    1
    13     7     8    1
    14     8     1    1
    15     1    19    1
    16    19    20    1
    17    20    21   ar
    18    21    22   ar
    19    22    23   ar
    20    23    24   ar
    21    24    25    1
    22    25    26    1
    23    26    27   ar
    24    27    28   ar
    25    28    29   ar
    26    29    32    1
    27    32    33    3
    28    29    30   ar
    29    30    31   ar
    30     8     9    1
    31     9    10    2
    32    16    11   ar
    33     9     5   am
    34    24    20   ar
    35    31    26   ar
    36     1     2    1
@<TRIPOS>MOLECULE
*****
 33 36 0 0 0
SMALL
GASTEIGER

@<TRIPOS>ATOM
      1 N         143.2950  143.6942  161.8630 N.3     1  UNL1       -0.2863
      2 H         144.2800  143.7855  161.6142 H       1  UNL1        0.1240
      3 C         141.6392  142.4797  166.7276 C.2     1  UNL1        0.2593
      4 O         140.2677  143.0870  166.7509 O.2     1  UNL1       -0.2693
      5 N         142.4889  142.5933  165.4967 N.am    1  UNL1       -0.2251
      6 C         143.8725  142.0397  165.3263 C.3     1  UNL1        0.1031
      7 C         144.3430  142.3847  163.9444 C.3     1  UNL1        0.0471
      8 C         143.2500  143.1515  163.2607 C.3     1  UNL1        0.1341
      9 C         142.1042  143.2804  164.2201 C.2     1  UNL1        0.2459
     10 O         140.8021  143.9746  163.9502 O.2     1  UNL1       -0.2730
     11 C         142.1582  140.2593  167.9728 C.ar    1  UNL1        0.2293
     12 N         142.6798  139.5384  169.1803 N.ar    1  UNL1       -0.2100
     13 C         143.2041  140.3170  170.3503 C.ar    1  UNL1        0.1021
     14 C         143.2067  141.8165  170.3127 C.ar    1  UNL1        0.0210
     15 C         142.6851  142.5375  169.1051 C.ar    1  UNL1        0.0108
     16 C         142.1608  141.7588  167.9351 C.ar    1  UNL1        0.1070
     17 C         142.5750  138.6801  165.9522 C.3     1  UNL1        0.2542
     18 O         141.6339  139.4806  166.8028 O.3     1  UNL1       -0.4560
     19 C         142.6339  142.9433  160.7454 C.3     1  UNL1        0.1151
     20 C         141.1384  142.8400  160.6929 C.ar    1  UNL1        0.0739
     21 C         140.2098  143.8165  160.0338 C.ar    1  UNL1        0.1147
     22 N         138.8064  143.3221  160.2238 N.ar    1  UNL1       -0.2226
     23 C         138.8677  142.0402  161.0003 C.ar    1  UNL1        0.1786
     24 N         140.3089  141.7422  161.2902 N.ar    1  UNL1       -0.3070
     25 C         140.8293  140.5550  162.0449 C.3     1  UNL1        0.1340
     26 C         140.0439  139.9927  163.1925 C.ar    1  UNL1        0.0005
     27 C         139.3700  140.9158  164.1639 C.ar    1  UNL1       -0.0017
     28 C         138.5846  140.3536  165.3115 C.ar    1  UNL1        0.0100
     29 C         138.4731  138.8681  165.4877 C.ar    1  UNL1        0.0684
     30 C         139.1470  137.9450  164.5163 C.ar    1  UNL1        0.0100
     31 C         139.9324  138.5073  163.3687 C.ar    1  UNL1       -0.0017
     32 C         137.6877  138.3058  166.6353 C.1     1  UNL1        0.1004
     33 N         136.9023  137.7436  167.7829 N.1     1  UNL1       -0.1908
@<TRIPOS>BOND
     1    17    18    1
     2    18    11    1
     3    11    12   ar
     4    12    13   ar
     5    13    14   ar
     6    14    15   ar
     7    15    16   ar
     8    16     3    1
     9     3     4    2
    10     3     5   am
    11     5     6    1
    12     6     7    1
    13     7     8    1
    14     8     1    1
    15     1    19    1
    16    19    20    1
    17    20    21   ar
    18    21    22   ar
    19    22    23   ar
    20    23    24   ar
    21    24    25    1
    22    25    26    1
    23    26    27   ar
    24    27    28   ar
    25    28    29   ar
    26    29    32    1
    27    32    33    3
    28    29    30   ar
    29    30    31   ar
    30     8     9    1
    31     9    10    2
    32    16    11   ar
    33     9     5   am
    34    24    20   ar
    35    31    26   ar
    36     1     2    1
@<TRIPOS>MOLECULE
*****
 33 36 0 0 0
SMALL
GASTEIGER

@<TRIPOS>ATOM
      1 N         137.6507  139.3320  162.4925 N.3     1  UNL1       -0.2863
      2 H         137.2067  140.1085  162.0023 H       1  UNL1        0.1240
      3 C         140.8164  142.4750  165.3175 C.2     1  UNL1        0.2593
      4 O         141.2648  143.4712  164.2896 O.2     1  UNL1       -0.2693
      5 N         139.8785  141.3698  164.9317 N.am    1  UNL1       -0.2251
      6 C         139.3464  140.3058  165.8454 C.3     1  UNL1        0.1031
      7 C         138.4471  139.4129  165.0429 C.3     1  UNL1        0.0471
      8 C         138.4234  139.9250  163.6332 C.3     1  UNL1        0.1341
      9 C         139.3081  141.1345  163.5646 C.2     1  UNL1        0.2459
     10 O         139.5753  141.9631  162.3431 O.2     1  UNL1       -0.2730
     11 C         142.7697  142.4506  167.0305 C.ar    1  UNL1        0.2293
     12 N         143.2592  142.5597  168.4441 N.ar    1  UNL1       -0.2100
     13 C         142.2849  142.8022  169.5586 C.ar    1  UNL1        0.1021
     14 C         140.8212  142.9356  169.2593 C.ar    1  UNL1        0.0210
     15 C         140.3316  142.8266  167.8456 C.ar    1  UNL1        0.0108
     16 C         141.3059  142.5841  166.7312 C.ar    1  UNL1        0.1070
     17 C         144.5934  143.3335  165.4042 C.3     1  UNL1        0.2542
     18 O         143.7440  142.2081  165.9160 O.3     1  UNL1       -0.4560
     19 C         138.3572  138.5117  161.4543 C.3     1  UNL1        0.1151
     20 C         139.1747  139.1872  160.3934 C.ar    1  UNL1        0.0739
     21 C         138.6831  140.2258  159.4293 C.ar    1  UNL1        0.1147
     22 N         139.8320  140.6232  158.5505 N.ar    1  UNL1       -0.2226
     23 C         141.0335  139.8301  158.9715 C.ar    1  UNL1        0.1786
     24 N         140.6274  138.9426  160.1105 N.ar    1  UNL1       -0.3070
     25 C         141.5175  137.9795  160.8386 C.3     1  UNL1        0.1340
     26 C         141.8246  138.1935  162.2911 C.ar    1  UNL1        0.0005
     27 C         142.6890  139.3445  162.7133 C.ar    1  UNL1       -0.0017
     28 C         142.9961  139.5585  164.1658 C.ar    1  UNL1        0.0100
     29 C         142.4389  138.6216  165.1962 C.ar    1  UNL1        0.0684
     30 C         141.5746  137.4706  164.7740 C.ar    1  UNL1        0.0100
     31 C         141.2674  137.2566  163.3215 C.ar    1  UNL1       -0.0017
     32 C         142.7461  138.8356  166.6488 C.1     1  UNL1        0.1004
     33 N         143.0532  139.0496  168.1013 N.1     1  UNL1       -0.1908
@<TRIPOS>BOND
     1    17    18    1
     2    18    11    1
     3    11    12   ar
     4    12    13   ar
     5    13    14   ar
     6    14    15   ar
     7    15    16   ar
     8    16     3    1
     9     3     4    2
    10     3     5   am
    11     5     6    1
    12     6     7    1
    13     7     8    1
    14     8     1    1
    15     1    19    1
    16    19    20    1
    17    20    21   ar
    18    21    22   ar
    19    22    23   ar
    20    23    24   ar
    21    24    25    1
    22    25    26    1
    23    26    27   ar
    24    27    28   ar
    25    28    29   ar
    26    29    32    1
    27    32    33    3
    28    29    30   ar
    29    30    31   ar
    30     8     9    1
    31     9    10    2
    32    16    11   ar
    33     9     5   am
    34    24    20   ar
    35    31    26   ar
    36     1     2    1
@<TRIPOS>MOLECULE
*****
 33 36 0 0 0
SMALL
GASTEIGER

@<TRIPOS>ATOM
      1 N         143.5295  145.1685  162.9805 N.3     1  UNL1       -0.2863
      2 H         143.0451  146.0114  163.2892 H       1  UNL1        0.1240
      3 C         139.0752  143.2029  160.9367 C.2     1  UNL1        0.2593
      4 O         138.0318  143.7895  161.8408 O.2     1  UNL1       -0.2693
      5 N         140.5252  143.5119  161.1651 N.am    1  UNL1       -0.2251
      6 C         141.6749  143.0013  160.3482 C.3     1  UNL1        0.1031
      7 C         142.9402  143.5596  160.9288 C.3     1  UNL1        0.0471
      8 C         142.5726  144.4154  162.1045 C.3     1  UNL1        0.1341
      9 C         141.0800  144.3859  162.2506 C.2     1  UNL1        0.2459
     10 O         140.2823  145.1043  163.2983 O.2     1  UNL1       -0.2730
     11 C         138.3635  140.8616  160.0637 C.ar    1  UNL1        0.2293
     12 N         137.9570  139.9660  158.9312 N.ar    1  UNL1       -0.2100
     13 C         137.8555  140.5159  157.5393 C.ar    1  UNL1        0.1021
     14 C         138.1605  141.9614  157.2799 C.ar    1  UNL1        0.0210
     15 C         138.5671  142.8571  158.4124 C.ar    1  UNL1        0.0108
     16 C         138.6686  142.3072  159.8042 C.ar    1  UNL1        0.1070
     17 C         137.7752  139.0269  161.8065 C.3     1  UNL1        0.2542
     18 O         138.4651  140.3117  161.4555 O.3     1  UNL1       -0.4560
     19 C         144.0923  144.5179  164.2092 C.3     1  UNL1        0.1151
     20 C         144.1476  143.0221  164.3074 C.ar    1  UNL1        0.0739
     21 C         145.2785  142.1497  163.8489 C.ar    1  UNL1        0.1147
     22 N         144.9116  140.7245  164.1395 N.ar    1  UNL1       -0.2226
     23 C         143.5541  140.7162  164.7774 C.ar    1  UNL1        0.1786
     24 N         143.0819  142.1362  164.8812 N.ar    1  UNL1       -0.3070
     25 C         141.7737  142.5904  165.4577 C.3     1  UNL1        0.1340
     26 C         140.7510  141.5797  165.8847 C.ar    1  UNL1        0.0005
     27 C         139.7323  141.0824  164.9025 C.ar    1  UNL1       -0.0017
     28 C         138.7095  140.0716  165.3295 C.ar    1  UNL1        0.0100
     29 C         138.7055  139.5582  166.7389 C.ar    1  UNL1        0.0684
     30 C         139.7243  140.0555  167.7212 C.ar    1  UNL1        0.0100
     31 C         140.7470  141.0662  167.2941 C.ar    1  UNL1       -0.0017
     32 C         137.6828  138.5474  167.1660 C.1     1  UNL1        0.1004
     33 N         136.6600  137.5366  167.5931 N.1     1  UNL1       -0.1908
@<TRIPOS>BOND
     1    17    18    1
     2    18    11    1
     3    11    12   ar
     4    12    13   ar
     5    13    14   ar
     6    14    15   ar
     7    15    16   ar
     8    16     3    1
     9     3     4    2
    10     3     5   am
    11     5     6    1
    12     6     7    1
    13     7     8    1
    14     8     1    1
    15     1    19    1
    16    19    20    1
    17    20    21   ar
    18    21    22   ar
    19    22    23   ar
    20    23    24   ar
    21    24    25    1
    22    25    26    1
    23    26    27   ar
    24    27    28   ar
    25    28    29   ar
    26    29    32    1
    27    32    33    3
    28    29    30   ar
    29    30    31   ar
    30     8     9    1
    31     9    10    2
    32    16    11   ar
    33     9     5   am
    34    24    20   ar
    35    31    26   ar
    36     1     2    1
@<TRIPOS>MOLECULE
*****
 33 36 0 0 0
SMALL
GASTEIGER

@<TRIPOS>ATOM
      1 N         143.7228  140.8969  162.4908 N.3     1  UNL1       -0.2863
      2 H         144.5600  140.3394  162.6603 H       1  UNL1        0.1240
      3 C         142.3747  140.5289  167.5827 C.2     1  UNL1        0.2593
      4 O         143.0454  139.2508  167.9913 O.2     1  UNL1       -0.2693
      5 N         142.5019  141.0252  166.1730 N.am    1  UNL1       -0.2251
      6 C         141.8908  142.2790  165.6211 C.3     1  UNL1        0.1031
      7 C         142.2738  142.3836  164.1746 C.3     1  UNL1        0.0471
      8 C         143.1216  141.1944  163.8324 C.3     1  UNL1        0.1341
      9 C         143.2625  140.3549  165.0675 C.2     1  UNL1        0.2459
     10 O         144.0295  139.0705  165.1777 O.2     1  UNL1       -0.2730
     11 C         140.2417  140.8020  169.0407 C.ar    1  UNL1        0.2293
     12 N         139.4439  141.5837  170.0419 N.ar    1  UNL1       -0.2100
     13 C         139.9813  142.8740  170.5864 C.ar    1  UNL1        0.1021
     14 C         141.3165  143.3825  170.1297 C.ar    1  UNL1        0.0210
     15 C         142.1144  142.6008  169.1284 C.ar    1  UNL1        0.0108
     16 C         141.5770  141.3106  168.5840 C.ar    1  UNL1        0.1070
     17 C         138.9066  139.5082  167.2260 C.3     1  UNL1        0.2542
     18 O         139.7043  139.5118  168.4962 O.3     1  UNL1       -0.4560
     19 C         142.9200  140.1683  161.4541 C.3     1  UNL1        0.1151
     20 C         141.8894  139.1624  161.8739 C.ar    1  UNL1        0.0739
     21 C         142.1642  137.7767  162.3783 C.ar    1  UNL1        0.1147
     22 N         140.8477  137.1235  162.6792 N.ar    1  UNL1       -0.2226
     23 C         139.7595  138.1056  162.3608 C.ar    1  UNL1        0.1786
     24 N         140.4033  139.3657  161.8631 N.ar    1  UNL1       -0.3070
     25 C         139.6868  140.6105  161.4306 C.3     1  UNL1        0.1340
     26 C         139.3044  141.6467  162.4454 C.ar    1  UNL1        0.0005
     27 C         139.5742  143.0972  162.1746 C.ar    1  UNL1       -0.0017
     28 C         139.1918  144.1334  163.1895 C.ar    1  UNL1        0.0100
     29 C         138.5395  143.7192  164.4751 C.ar    1  UNL1        0.0684
     30 C         138.2696  142.2688  164.7459 C.ar    1  UNL1        0.0100
     31 C         138.6521  141.2325  163.7311 C.ar    1  UNL1       -0.0017
     32 C         138.1570  144.7555  165.4900 C.1     1  UNL1        0.1004
     33 N         137.7746  145.7918  166.5049 N.1     1  UNL1       -0.1908
@<TRIPOS>BOND
     1    17    18    1
     2    18    11    1
     3    11    12   ar
     4    12    13   ar
     5    13    14   ar
     6    14    15   ar
     7    15    16   ar
     8    16     3    1
     9     3     4    2
    10     3     5   am
    11     5     6    1
    12     6     7    1
    13     7     8    1
    14     8     1    1
    15     1    19    1
    16    19    20    1
    17    20    21   ar
    18    21    22   ar
    19    22    23   ar
    20    23    24   ar
    21    24    25    1
    22    25    26    1
    23    26    27   ar
    24    27    28   ar
    25    28    29   ar
    26    29    32    1
    27    32    33    3
    28    29    30   ar
    29    30    31   ar
    30     8     9    1
    31     9    10    2
    32    16    11   ar
    33     9     5   am
    34    24    20   ar
    35    31    26   ar
    36     1     2    1
