@<TRIPOS>MOLECULE
*****
 26 29 0 0 0
SMALL
GASTEIGER

@<TRIPOS>ATOM
      1 C         142.1194  141.1160  165.6786 C.3     1  UNL1        0.0352
      2 C         141.6735  143.3014  164.3461 C.ar    1  UNL1       -0.0039
      3 C         142.1428  144.6334  163.8409 C.ar    1  UNL1       -0.0003
      4 C         143.5274  145.1122  164.1628 C.ar    1  UNL1       -0.0000
      5 C         144.4427  144.2590  164.9900 C.ar    1  UNL1       -0.0003
      6 C         143.9733  142.9270  165.4952 C.ar    1  UNL1       -0.0042
      7 C         142.5887  142.4482  165.1733 C.ar    1  UNL1       -0.0215
      8 C         137.5197  141.8650  163.3804 C.ar    1  UNL1       -0.0000
      9 C         137.7476  142.7617  164.5610 C.ar    1  UNL1       -0.0000
     10 C         139.1322  143.2405  164.8829 C.ar    1  UNL1       -0.0000
     11 C         140.2889  142.8226  164.0242 C.ar    1  UNL1       -0.0003
     12 C         140.0609  141.9259  162.8436 C.ar    1  UNL1       -0.0000
     13 C         138.6763  141.4471  162.5217 C.ar    1  UNL1       -0.0000
     14 C         141.3265  141.0328  166.9492 C.3     1  UNL1        0.0520
     15 C         140.0760  140.2059  167.0002 C.ar    1  UNL1        0.0011
     16 C         139.5142  139.6172  165.7401 C.ar    1  UNL1       -0.0008
     17 C         138.2638  138.7904  165.7911 C.ar    1  UNL1        0.0204
     18 C         137.5751  138.5522  167.1022 C.ar    1  UNL1        0.0989
     19 N         138.1369  139.1408  168.3623 N.ar    1  UNL1       -0.2426
     20 C         139.3874  139.9677  168.3113 C.ar    1  UNL1        0.0949
     21 C         141.7842  141.7764  168.1689 C.ar    1  UNL1        0.0011
     22 C         143.1141  141.4590  168.7858 C.ar    1  UNL1       -0.0008
     23 C         143.5717  142.2026  170.0054 C.ar    1  UNL1        0.0204
     24 C         142.6994  143.2636  170.6082 C.ar    1  UNL1        0.0989
     25 N         141.3694  143.5810  169.9914 N.ar    1  UNL1       -0.2426
     26 C         140.9118  142.8374  168.7717 C.ar    1  UNL1        0.0949
@<TRIPOS>BOND
     1     8     9   ar
     2     9    10   ar
     3    10    11   ar
     4    11     2    1
     5     2     3   ar
     6     3     4   ar
     7     4     5   ar
     8     5     6   ar
     9     6     7   ar
    10     7     1    1
    11     1    14    1
    12    14    15    1
    13    15    16   ar
    14    16    17   ar
    15    17    18   ar
    16    18    19   ar
    17    19    20   ar
    18    14    21    1
    19    21    22   ar
    20    22    23   ar
    21    23    24   ar
    22    24    25   ar
    23    25    26   ar
    24    11    12   ar
    25    12    13   ar
    26    13     8   ar
    27     7     2   ar
    28    20    15   ar
    29    26    21   ar
@<TRIPOS>MOLECULE
*****
 26 29 0 0 0
SMALL
GASTEIGER

@<TRIPOS>ATOM
      1 C         142.1293  141.0628  165.6011 C.3     1  UNL1        0.0352
      2 C         141.6398  143.2520  164.2902 C.ar    1  UNL1       -0.0039
      3 C         142.0840  144.5962  163.7946 C.ar    1  UNL1       -0.0003
      4 C         143.4619  145.0955  164.1140 C.ar    1  UNL1       -0.0000
      5 C         144.3956  144.2506  164.9291 C.ar    1  UNL1       -0.0003
      6 C         143.9514  142.9064  165.4247 C.ar    1  UNL1       -0.0042
      7 C         142.5735  142.4071  165.1053 C.ar    1  UNL1       -0.0215
      8 C         137.5061  141.7539  163.3320 C.ar    1  UNL1       -0.0000
      9 C         138.6650  141.3646  162.4630 C.ar    1  UNL1       -0.0000
     10 C         140.0430  141.8640  162.7824 C.ar    1  UNL1       -0.0000
     11 C         140.2619  142.7526  163.9708 C.ar    1  UNL1       -0.0003
     12 C         139.1029  143.1419  164.8398 C.ar    1  UNL1       -0.0000
     13 C         137.7250  142.6425  164.5204 C.ar    1  UNL1       -0.0000
     14 C         141.3010  140.9592  166.8473 C.3     1  UNL1        0.0520
     15 C         141.7016  141.7157  168.0792 C.ar    1  UNL1        0.0011
     16 C         140.8307  142.8220  168.5962 C.ar    1  UNL1       -0.0008
     17 C         141.2313  143.5785  169.8280 C.ar    1  UNL1        0.0204
     18 C         142.5028  143.2286  170.5427 C.ar    1  UNL1        0.0989
     19 N         143.3737  142.1222  170.0256 N.ar    1  UNL1       -0.2426
     20 C         142.9731  141.3658  168.7939 C.ar    1  UNL1        0.0949
     21 C         140.0722  140.0991  166.8619 C.ar    1  UNL1        0.0011
     22 C         139.5879  139.4616  165.5934 C.ar    1  UNL1       -0.0008
     23 C         138.3591  138.6015  165.6080 C.ar    1  UNL1        0.0204
     24 C         137.6146  138.3788  166.8910 C.ar    1  UNL1        0.0989
     25 N         138.0989  139.0163  168.1595 N.ar    1  UNL1       -0.2426
     26 C         139.3277  139.8764  168.1450 C.ar    1  UNL1        0.0949
@<TRIPOS>BOND
     1     8     9   ar
     2     9    10   ar
     3    10    11   ar
     4    11     2    1
     5     2     3   ar
     6     3     4   ar
     7     4     5   ar
     8     5     6   ar
     9     6     7   ar
    10     7     1    1
    11     1    14    1
    12    14    15    1
    13    15    16   ar
    14    16    17   ar
    15    17    18   ar
    16    18    19   ar
    17    19    20   ar
    18    14    21    1
    19    21    22   ar
    20    22    23   ar
    21    23    24   ar
    22    24    25   ar
    23    25    26   ar
    24    11    12   ar
    25    12    13   ar
    26    13     8   ar
    27     7     2   ar
    28    20    15   ar
    29    26    21   ar
@<TRIPOS>MOLECULE
*****
 26 29 0 0 0
SMALL
GASTEIGER

@<TRIPOS>ATOM
      1 C         141.2160  142.0986  165.4026 C.3     1  UNL1        0.0352
      2 C         143.2050  140.8391  164.3035 C.ar    1  UNL1       -0.0039
      3 C         144.6454  140.7973  163.8874 C.ar    1  UNL1       -0.0003
      4 C         145.5376  141.9733  164.1541 C.ar    1  UNL1       -0.0000
      5 C         144.9892  143.1911  164.8369 C.ar    1  UNL1       -0.0003
      6 C         143.5487  143.2328  165.2531 C.ar    1  UNL1       -0.0042
      7 C         142.6566  142.0568  164.9864 C.ar    1  UNL1       -0.0215
      8 C         140.5286  137.3111  163.5034 C.ar    1  UNL1       -0.0000
      9 C         140.5506  138.4676  162.5485 C.ar    1  UNL1       -0.0000
     10 C         141.4427  139.6436  162.8152 C.ar    1  UNL1       -0.0000
     11 C         142.3128  139.6631  164.0368 C.ar    1  UNL1       -0.0003
     12 C         142.2908  138.5066  164.9918 C.ar    1  UNL1       -0.0000
     13 C         141.3987  137.3306  164.7251 C.ar    1  UNL1       -0.0000
     14 C         140.8081  141.5725  166.7467 C.3     1  UNL1        0.0520
     15 C         141.4917  142.0699  167.9858 C.ar    1  UNL1        0.0011
     16 C         142.8440  141.5399  168.3605 C.ar    1  UNL1       -0.0008
     17 C         143.5275  142.0373  169.5996 C.ar    1  UNL1        0.0204
     18 C         142.8587  143.0647  170.4640 C.ar    1  UNL1        0.0989
     19 N         141.5064  143.5946  170.0894 N.ar    1  UNL1       -0.2426
     20 C         140.8229  143.0972  168.8503 C.ar    1  UNL1        0.0949
     21 C         139.7166  140.5490  166.8518 C.ar    1  UNL1        0.0011
     22 C         139.0609  140.0216  165.6101 C.ar    1  UNL1       -0.0008
     23 C         137.9695  138.9981  165.7152 C.ar    1  UNL1        0.0204
     24 C         137.5337  138.5019  167.0620 C.ar    1  UNL1        0.0989
     25 N         138.1894  139.0293  168.3038 N.ar    1  UNL1       -0.2426
     26 C         139.2809  140.0528  168.1987 C.ar    1  UNL1        0.0949
@<TRIPOS>BOND
     1     8     9   ar
     2     9    10   ar
     3    10    11   ar
     4    11     2    1
     5     2     3   ar
     6     3     4   ar
     7     4     5   ar
     8     5     6   ar
     9     6     7   ar
    10     7     1    1
    11     1    14    1
    12    14    15    1
    13    15    16   ar
    14    16    17   ar
    15    17    18   ar
    16    18    19   ar
    17    19    20   ar
    18    14    21    1
    19    21    22   ar
    20    22    23   ar
    21    23    24   ar
    22    24    25   ar
    23    25    26   ar
    24    11    12   ar
    25    12    13   ar
    26    13     8   ar
    27     7     2   ar
    28    20    15   ar
    29    26    21   ar
@<TRIPOS>MOLECULE
*****
 26 29 0 0 0
SMALL
GASTEIGER

@<TRIPOS>ATOM
      1 C         139.8168  140.4515  167.1806 C.3     1  UNL1        0.0352
      2 C         142.0860  141.3911  168.0278 C.ar    1  UNL1       -0.0039
      3 C         142.8582  142.2815  168.9556 C.ar    1  UNL1       -0.0003
      4 C         142.1333  143.1227  169.9641 C.ar    1  UNL1       -0.0000
      5 C         140.6363  143.0735  170.0447 C.ar    1  UNL1       -0.0003
      6 C         139.8642  142.1831  169.1169 C.ar    1  UNL1       -0.0042
      7 C         140.5890  141.3419  168.1084 C.ar    1  UNL1       -0.0215
      8 C         144.2605  138.8675  165.0024 C.ar    1  UNL1       -0.0000
      9 C         143.7285  138.2417  166.2576 C.ar    1  UNL1       -0.0000
     10 C         143.0037  139.0830  167.2660 C.ar    1  UNL1       -0.0000
     11 C         142.8109  140.5499  167.0194 C.ar    1  UNL1       -0.0003
     12 C         143.3428  141.1756  165.7642 C.ar    1  UNL1       -0.0000
     13 C         144.0677  140.3344  164.7558 C.ar    1  UNL1       -0.0000
     14 C         139.8262  140.7180  165.7045 C.3     1  UNL1        0.0520
     15 C         139.3944  142.0559  165.1811 C.ar    1  UNL1        0.0011
     16 C         140.3326  143.2245  165.2447 C.ar    1  UNL1       -0.0008
     17 C         139.9008  144.5622  164.7214 C.ar    1  UNL1        0.0204
     18 C         138.5308  144.7314  164.1345 C.ar    1  UNL1        0.0989
     19 N         137.5926  143.5628  164.0709 N.ar    1  UNL1       -0.2426
     20 C         138.0244  142.2250  164.5942 C.ar    1  UNL1        0.0949
     21 C         140.2673  139.6467  164.7517 C.ar    1  UNL1        0.0011
     22 C         140.2367  138.2079  165.1745 C.ar    1  UNL1       -0.0008
     23 C         140.6778  137.1367  164.2217 C.ar    1  UNL1        0.0204
     24 C         141.1495  137.5042  162.8461 C.ar    1  UNL1        0.0989
     25 N         141.1802  138.9431  162.4233 N.ar    1  UNL1       -0.2426
     26 C         140.7391  140.0144  163.3760 C.ar    1  UNL1        0.0949
@<TRIPOS>BOND
     1     8     9   ar
     2     9    10   ar
     3    10    11   ar
     4    11     2    1
     5     2     3   ar
     6     3     4   ar
     7     4     5   ar
     8     5     6   ar
     9     6     7   ar
    10     7     1    1
    11     1    14    1
    12    14    15    1
    13    15    16   ar
    14    16    17   ar
    15    17    18   ar
    16    18    19   ar
    17    19    20   ar
    18    14    21    1
    19    21    22   ar
    20    22    23   ar
    21    23    24   ar
    22    24    25   ar
    23    25    26   ar
    24    11    12   ar
    25    12    13   ar
    26    13     8   ar
    27     7     2   ar
    28    20    15   ar
    29    26    21   ar
@<TRIPOS>MOLECULE
*****
 26 29 0 0 0
SMALL
GASTEIGER

@<TRIPOS>ATOM
      1 C         139.8314  140.4580  167.1428 C.3     1  UNL1        0.0352
      2 C         142.1011  141.3846  168.0030 C.ar    1  UNL1       -0.0039
      3 C         142.8730  142.2711  168.9348 C.ar    1  UNL1       -0.0003
      4 C         142.1472  143.1176  169.9381 C.ar    1  UNL1       -0.0000
      5 C         140.6495  143.0775  170.0096 C.ar    1  UNL1       -0.0003
      6 C         139.8776  142.1910  169.0779 C.ar    1  UNL1       -0.0042
      7 C         140.6034  141.3445  168.0746 C.ar    1  UNL1       -0.0215
      8 C         144.2786  138.8451  164.9930 C.ar    1  UNL1       -0.0000
      9 C         144.0758  140.3084  164.7331 C.ar    1  UNL1       -0.0000
     10 C         143.3500  141.1549  165.7364 C.ar    1  UNL1       -0.0000
     11 C         142.8269  140.5381  166.9997 C.ar    1  UNL1       -0.0003
     12 C         143.0297  139.0748  167.2597 C.ar    1  UNL1       -0.0000
     13 C         143.7555  138.2283  166.2563 C.ar    1  UNL1       -0.0000
     14 C         139.8431  140.7292  165.6676 C.3     1  UNL1        0.0520
     15 C         140.2745  139.6571  164.7113 C.ar    1  UNL1        0.0011
     16 C         140.2917  138.2229  165.1505 C.ar    1  UNL1       -0.0008
     17 C         140.7230  137.1509  164.1942 C.ar    1  UNL1        0.0204
     18 C         141.1372  137.5129  162.7987 C.ar    1  UNL1        0.0989
     19 N         141.1200  138.9471  162.3595 N.ar    1  UNL1       -0.2426
     20 C         140.6887  140.0191  163.3158 C.ar    1  UNL1        0.0949
     21 C         139.4236  142.0726  165.1486 C.ar    1  UNL1        0.0011
     22 C         140.3832  143.2247  165.1874 C.ar    1  UNL1       -0.0008
     23 C         139.9636  144.5681  164.6684 C.ar    1  UNL1        0.0204
     24 C         138.5844  144.7593  164.1107 C.ar    1  UNL1        0.0989
     25 N         137.6247  143.6071  164.0719 N.ar    1  UNL1       -0.2426
     26 C         138.0442  142.2638  164.5909 C.ar    1  UNL1        0.0949
@<TRIPOS>BOND
     1     8     9   ar
     2     9    10   ar
     3    10    11   ar
     4    11     2    1
     5     2     3   ar
     6     3     4   ar
     7     4     5   ar
     8     5     6   ar
     9     6     7   ar
    10     7     1    1
    11     1    14    1
    12    14    15    1
    13    15    16   ar
    14    16    17   ar
    15    17    18   ar
    16    18    19   ar
    17    19    20   ar
    18    14    21    1
    19    21    22   ar
    20    22    23   ar
    21    23    24   ar
    22    24    25   ar
    23    25    26   ar
    24    11    12   ar
    25    12    13   ar
    26    13     8   ar
    27     7     2   ar
    28    20    15   ar
    29    26    21   ar
@<TRIPOS>MOLECULE
*****
 26 29 0 0 0
SMALL
GASTEIGER

@<TRIPOS>ATOM
      1 C         141.3421  141.2652  166.5263 C.3     1  UNL1        0.0352
      2 C         143.2989  140.9270  164.8510 C.ar    1  UNL1       -0.0039
      3 C         144.4506  140.1089  164.3469 C.ar    1  UNL1       -0.0003
      4 C         144.7972  138.8107  165.0137 C.ar    1  UNL1       -0.0000
      5 C         143.9921  138.3307  166.1847 C.ar    1  UNL1       -0.0003
      6 C         142.8404  139.1489  166.6889 C.ar    1  UNL1       -0.0042
      7 C         142.4938  140.4470  166.0220 C.ar    1  UNL1       -0.0215
      8 C         142.2592  144.8214  162.8504 C.ar    1  UNL1       -0.0000
      9 C         141.7152  143.5321  162.3104 C.ar    1  UNL1       -0.0000
     10 C         142.0618  142.2340  162.9772 C.ar    1  UNL1       -0.0000
     11 C         142.9524  142.2252  164.1842 C.ar    1  UNL1       -0.0003
     12 C         143.4964  143.5145  164.7242 C.ar    1  UNL1       -0.0000
     13 C         143.1498  144.8126  164.0573 C.ar    1  UNL1       -0.0000
     14 C         139.9761  141.0822  165.9342 C.3     1  UNL1        0.0520
     15 C         139.3266  142.2076  165.1847 C.ar    1  UNL1        0.0011
     16 C         139.6797  143.6284  165.5112 C.ar    1  UNL1       -0.0008
     17 C         139.0302  144.7538  164.7618 C.ar    1  UNL1        0.0204
     18 C         138.0276  144.4583  163.6859 C.ar    1  UNL1        0.0989
     19 N         137.6745  143.0375  163.3594 N.ar    1  UNL1       -0.2426
     20 C         138.3240  141.9122  164.1088 C.ar    1  UNL1        0.0949
     21 C         139.2596  139.7738  166.0915 C.ar    1  UNL1        0.0011
     22 C         139.4742  138.6762  165.0920 C.ar    1  UNL1       -0.0008
     23 C         138.7577  137.3679  165.2493 C.ar    1  UNL1        0.0204
     24 C         137.8265  137.1571  166.4062 C.ar    1  UNL1        0.0989
     25 N         137.6118  138.2547  167.4058 N.ar    1  UNL1       -0.2426
     26 C         138.3283  139.5631  167.2485 C.ar    1  UNL1        0.0949
@<TRIPOS>BOND
     1     8     9   ar
     2     9    10   ar
     3    10    11   ar
     4    11     2    1
     5     2     3   ar
     6     3     4   ar
     7     4     5   ar
     8     5     6   ar
     9     6     7   ar
    10     7     1    1
    11     1    14    1
    12    14    15    1
    13    15    16   ar
    14    16    17   ar
    15    17    18   ar
    16    18    19   ar
    17    19    20   ar
    18    14    21    1
    19    21    22   ar
    20    22    23   ar
    21    23    24   ar
    22    24    25   ar
    23    25    26   ar
    24    11    12   ar
    25    12    13   ar
    26    13     8   ar
    27     7     2   ar
    28    20    15   ar
    29    26    21   ar
@<TRIPOS>MOLECULE
*****
 26 29 0 0 0
SMALL
GASTEIGER

@<TRIPOS>ATOM
      1 C         142.2397  142.5478  166.8787 C.3     1  UNL1        0.0352
      2 C         140.8845  140.6252  167.9820 C.ar    1  UNL1       -0.0039
      3 C         139.9360  140.1457  169.0405 C.ar    1  UNL1       -0.0003
      4 C         139.3942  141.1094  170.0543 C.ar    1  UNL1       -0.0000
      5 C         139.8009  142.5525  170.0097 C.ar    1  UNL1       -0.0003
      6 C         140.7494  143.0319  168.9511 C.ar    1  UNL1       -0.0042
      7 C         141.2912  142.0682  167.9373 C.ar    1  UNL1       -0.0215
      8 C         142.5097  137.7342  164.9404 C.ar    1  UNL1       -0.0000
      9 C         141.0885  138.2041  164.8440 C.ar    1  UNL1       -0.0000
     10 C         140.5467  139.1677  165.8579 C.ar    1  UNL1       -0.0000
     11 C         141.4262  139.6615  166.9681 C.ar    1  UNL1       -0.0003
     12 C         142.8474  139.1917  167.0645 C.ar    1  UNL1       -0.0000
     13 C         143.3892  138.2280  166.0506 C.ar    1  UNL1       -0.0000
     14 C         141.8518  142.4675  165.4320 C.3     1  UNL1        0.0520
     15 C         142.7598  141.7904  164.4485 C.ar    1  UNL1        0.0011
     16 C         144.2183  141.6312  164.7607 C.ar    1  UNL1       -0.0008
     17 C         145.1262  140.9542  163.7772 C.ar    1  UNL1        0.0204
     18 C         144.5757  140.4364  162.4816 C.ar    1  UNL1        0.0989
     19 N         143.1172  140.5955  162.1694 N.ar    1  UNL1       -0.2426
     20 C         142.2093  141.2725  163.1529 C.ar    1  UNL1        0.0949
     21 C         140.5560  143.0642  164.9687 C.ar    1  UNL1        0.0011
     22 C         139.2805  142.2869  165.1067 C.ar    1  UNL1       -0.0008
     23 C         137.9847  142.8836  164.6434 C.ar    1  UNL1        0.0204
     24 C         137.9642  144.2577  164.0421 C.ar    1  UNL1        0.0989
     25 N         139.2397  145.0350  163.9040 N.ar    1  UNL1       -0.2426
     26 C         140.5356  144.4383  164.3673 C.ar    1  UNL1        0.0949
@<TRIPOS>BOND
     1     8     9   ar
     2     9    10   ar
     3    10    11   ar
     4    11     2    1
     5     2     3   ar
     6     3     4   ar
     7     4     5   ar
     8     5     6   ar
     9     6     7   ar
    10     7     1    1
    11     1    14    1
    12    14    15    1
    13    15    16   ar
    14    16    17   ar
    15    17    18   ar
    16    18    19   ar
    17    19    20   ar
    18    14    21    1
    19    21    22   ar
    20    22    23   ar
    21    23    24   ar
    22    24    25   ar
    23    25    26   ar
    24    11    12   ar
    25    12    13   ar
    26    13     8   ar
    27     7     2   ar
    28    20    15   ar
    29    26    21   ar
@<TRIPOS>MOLECULE
*****
 26 29 0 0 0
SMALL
GASTEIGER

@<TRIPOS>ATOM
      1 C         142.2587  142.5426  166.8735 C.3     1  UNL1        0.0352
      2 C         140.8907  140.6296  167.9777 C.ar    1  UNL1       -0.0039
      3 C         139.9387  140.1571  169.0362 C.ar    1  UNL1       -0.0003
      4 C         139.4025  141.1251  170.0488 C.ar    1  UNL1       -0.0000
      5 C         139.8183  142.5656  170.0031 C.ar    1  UNL1       -0.0003
      6 C         140.7704  143.0380  168.9446 C.ar    1  UNL1       -0.0042
      7 C         141.3066  142.0700  167.9320 C.ar    1  UNL1       -0.0215
      8 C         142.4993  137.7256  164.9398 C.ar    1  UNL1       -0.0000
      9 C         143.3851  138.2247  166.0426 C.ar    1  UNL1       -0.0000
     10 C         142.8489  139.1927  167.0553 C.ar    1  UNL1       -0.0000
     11 C         141.4269  139.6616  166.9651 C.ar    1  UNL1       -0.0003
     12 C         140.5412  139.1625  165.8622 C.ar    1  UNL1       -0.0000
     13 C         141.0774  138.1945  164.8496 C.ar    1  UNL1       -0.0000
     14 C         141.8698  142.4664  165.4268 C.3     1  UNL1        0.0520
     15 C         140.5785  143.0737  164.9643 C.ar    1  UNL1        0.0011
     16 C         139.2954  142.3111  165.1128 C.ar    1  UNL1       -0.0008
     17 C         138.0042  142.9184  164.6503 C.ar    1  UNL1        0.0204
     18 C         137.9961  144.2883  164.0393 C.ar    1  UNL1        0.0989
     19 N         139.2791  145.0509  163.8908 N.ar    1  UNL1       -0.2426
     20 C         140.5703  144.4436  164.3533 C.ar    1  UNL1        0.0949
     21 C         142.7721  141.7830  164.4426 C.ar    1  UNL1        0.0011
     22 C         144.2325  141.6266  164.7470 C.ar    1  UNL1       -0.0008
     23 C         145.1348  140.9431  163.7628 C.ar    1  UNL1        0.0204
     24 C         144.5767  140.4161  162.4741 C.ar    1  UNL1        0.0989
     25 N         143.1163  140.5726  162.1695 N.ar    1  UNL1       -0.2426
     26 C         142.2139  141.2560  163.1538 C.ar    1  UNL1        0.0949
@<TRIPOS>BOND
     1     8     9   ar
     2     9    10   ar
     3    10    11   ar
     4    11     2    1
     5     2     3   ar
     6     3     4   ar
     7     4     5   ar
     8     5     6   ar
     9     6     7   ar
    10     7     1    1
    11     1    14    1
    12    14    15    1
    13    15    16   ar
    14    16    17   ar
    15    17    18   ar
    16    18    19   ar
    17    19    20   ar
    18    14    21    1
    19    21    22   ar
    20    22    23   ar
    21    23    24   ar
    22    24    25   ar
    23    25    26   ar
    24    11    12   ar
    25    12    13   ar
    26    13     8   ar
    27     7     2   ar
    28    20    15   ar
    29    26    21   ar
@<TRIPOS>MOLECULE
*****
 26 29 0 0 0
SMALL
GASTEIGER

@<TRIPOS>ATOM
      1 C         141.2905  141.3356  166.4136 C.3     1  UNL1        0.0352
      2 C         143.2025  141.0913  164.6715 C.ar    1  UNL1       -0.0039
      3 C         144.3726  140.3280  164.1255 C.ar    1  UNL1       -0.0003
      4 C         144.8009  139.0458  164.7754 C.ar    1  UNL1       -0.0000
      5 C         144.0591  138.5268  165.9713 C.ar    1  UNL1       -0.0003
      6 C         142.8890  139.2901  166.5174 C.ar    1  UNL1       -0.0042
      7 C         142.4607  140.5723  165.8675 C.ar    1  UNL1       -0.0215
      8 C         141.9176  144.9381  162.7218 C.ar    1  UNL1       -0.0000
      9 C         141.4560  143.6241  162.1646 C.ar    1  UNL1       -0.0000
     10 C         141.8843  142.3419  162.8146 C.ar    1  UNL1       -0.0000
     11 C         142.7742  142.3736  164.0216 C.ar    1  UNL1       -0.0003
     12 C         143.2358  143.6875  164.5788 C.ar    1  UNL1       -0.0000
     13 C         142.8075  144.9697  163.9288 C.ar    1  UNL1       -0.0000
     14 C         139.9203  141.1163  165.8442 C.3     1  UNL1        0.0520
     15 C         139.2319  139.7970  166.0333 C.ar    1  UNL1        0.0011
     16 C         139.4683  138.6813  165.0590 C.ar    1  UNL1       -0.0008
     17 C         138.7799  137.3621  165.2481 C.ar    1  UNL1        0.0204
     18 C         137.8551  137.1586  166.4114 C.ar    1  UNL1        0.0989
     19 N         137.6187  138.2743  167.3857 N.ar    1  UNL1       -0.2426
     20 C         138.3070  139.5935  167.1966 C.ar    1  UNL1        0.0949
     21 C         139.2383  142.2162  165.0857 C.ar    1  UNL1        0.0011
     22 C         139.4891  143.6484  165.4541 C.ar    1  UNL1       -0.0008
     23 C         138.8071  144.7483  164.6956 C.ar    1  UNL1        0.0204
     24 C         137.8745  144.4159  163.5688 C.ar    1  UNL1        0.0989
     25 N         137.6237  142.9836  163.2005 N.ar    1  UNL1       -0.2426
     26 C         138.3057  141.8837  163.9589 C.ar    1  UNL1        0.0949
@<TRIPOS>BOND
     1     8     9   ar
     2     9    10   ar
     3    10    11   ar
     4    11     2    1
     5     2     3   ar
     6     3     4   ar
     7     4     5   ar
     8     5     6   ar
     9     6     7   ar
    10     7     1    1
    11     1    14    1
    12    14    15    1
    13    15    16   ar
    14    16    17   ar
    15    17    18   ar
    16    18    19   ar
    17    19    20   ar
    18    14    21    1
    19    21    22   ar
    20    22    23   ar
    21    23    24   ar
    22    24    25   ar
    23    25    26   ar
    24    11    12   ar
    25    12    13   ar
    26    13     8   ar
    27     7     2   ar
    28    20    15   ar
    29    26    21   ar
