@<TRIPOS>MOLECULE
*****
 36 38 0 0 0
SMALL
GASTEIGER

@<TRIPOS>ATOM
      1 C         146.6306  141.5347  155.2754 C.ar    1  UNL1        0.1390
      2 C         146.4711  142.4527  156.4510 C.ar    1  UNL1        0.0382
      3 C         145.4458  142.1519  157.5037 C.ar    1  UNL1        0.0179
      4 C         144.5800  140.9332  157.3809 C.ar    1  UNL1        0.0551
      5 C         144.7395  140.0152  156.2054 C.ar    1  UNL1        0.0702
      6 C         145.7649  140.3160  155.1527 C.ar    1  UNL1        0.0427
      7 N         143.5547  140.6324  158.4337 N.am    1  UNL1       -0.2802
      8 C         142.3076  141.4609  158.5245 C.2     1  UNL1        0.2517
      9 O         142.0858  142.5903  157.5625 O.2     1  UNL1       -0.2697
     10 H         143.7003  139.8911  159.0651 H       1  UNL1        0.1552
     11 C         141.2823  141.1601  159.5773 C.ar    1  UNL1        0.0811
     12 C         141.5901  141.4248  161.0213 C.ar    1  UNL1        0.0070
     13 C         140.5648  141.1240  162.0740 C.ar    1  UNL1        0.0076
     14 C         139.2317  140.5586  161.6828 C.ar    1  UNL1        0.0839
     15 C         138.9239  140.2939  160.2387 C.ar    1  UNL1        0.0371
     16 C         139.9492  140.5947  159.1859 C.ar    1  UNL1        0.1447
     17 F         139.6414  140.3300  157.7419 F       1  UNL1       -0.2040
     18 C         138.2064  140.2578  162.7355 C.2     1  UNL1        0.3152
     19 N         136.9131  141.0171  162.7615 N.2     1  UNL1       -0.0991
     20 H         136.7372  141.7129  162.0876 H       1  UNL1        0.3633
     21 N         138.4745  139.1976  163.7623 N.pl3   1  UNL1       -0.1833
     22 C         138.3709  139.5246  165.2226 C.3     1  UNL1        0.2536
     23 C         138.8461  137.8106  163.3288 C.3     1  UNL1        0.2536
     24 C         143.8738  138.7964  156.0826 C.2     1  UNL1        0.2518
     25 O         142.3924  138.9046  156.2918 O.2     1  UNL1       -0.2697
     26 N         144.4894  137.4695  155.7507 N.am    1  UNL1       -0.2658
     27 H         145.4617  137.3985  155.6134 H       1  UNL1        0.1566
     28 C         143.6236  136.2507  155.6278 C.ar    1  UNL1        0.1344
     29 C         142.7472  136.0715  154.4238 C.ar    1  UNL1        0.0354
     30 C         141.8815  134.8528  154.3010 C.ar    1  UNL1        0.0158
     31 C         141.8921  133.8132  155.3823 C.ar    1  UNL1        0.0769
     32 CL        141.0264  132.5944  155.2595 Cl      1  UNL1       -0.0806
     33 C         142.7685  133.9924  156.5864 C.ar    1  UNL1        0.1116
     34 N         143.6343  135.2111  156.7091 N.ar    1  UNL1       -0.2281
     35 C         149.1144  141.8300  154.5730 C.3     1  UNL1        0.2525
     36 O         147.6559  141.8355  154.2227 O.3     1  UNL1       -0.4714
@<TRIPOS>BOND
     1    35    36    1
     2    36     1    1
     3     1     2   ar
     4     2     3   ar
     5     3     4   ar
     6     4     7    1
     7     7     8   am
     8     8     9    2
     9     8    11    1
    10    11    12   ar
    11    12    13   ar
    12    13    14   ar
    13    14    18    1
    14    18    19    2
    15    18    21    1
    16    21    22    1
    17    21    23    1
    18    14    15   ar
    19    15    16   ar
    20    16    17    1
    21     4     5   ar
    22     5    24    1
    23    24    25    2
    24    24    26   am
    25    26    28    1
    26    28    29   ar
    27    29    30   ar
    28    30    31   ar
    29    31    32    1
    30    31    33   ar
    31    33    34   ar
    32     5     6   ar
    33     6     1   ar
    34    16    11   ar
    35    34    28   ar
    36     7    10    1
    37    19    20    1
    38    26    27    1
@<TRIPOS>MOLECULE
*****
 36 38 0 0 0
SMALL
GASTEIGER

@<TRIPOS>ATOM
      1 C         146.1050  141.5614  154.2059 C.ar    1  UNL1        0.1390
      2 C         146.3926  142.2686  155.4970 C.ar    1  UNL1        0.0382
      3 C         145.8485  141.7277  156.7859 C.ar    1  UNL1        0.0179
      4 C         145.0167  140.4795  156.7837 C.ar    1  UNL1        0.0551
      5 C         144.7291  139.7722  155.4926 C.ar    1  UNL1        0.0702
      6 C         145.2732  140.3131  154.2037 C.ar    1  UNL1        0.0427
      7 N         144.4726  139.9385  158.0726 N.am    1  UNL1       -0.2802
      8 C         143.1086  140.3496  158.5422 C.2     1  UNL1        0.2517
      9 O         142.2887  141.3017  157.7228 O.2     1  UNL1       -0.2697
     10 H         145.0107  139.3136  158.6104 H       1  UNL1        0.1552
     11 C         142.5645  139.8086  159.8311 C.ar    1  UNL1        0.0811
     12 C         142.0991  140.7497  160.9024 C.ar    1  UNL1        0.0070
     13 C         141.5550  140.2087  162.1913 C.ar    1  UNL1        0.0076
     14 C         141.4763  138.7267  162.4089 C.ar    1  UNL1        0.0839
     15 C         141.9417  137.7856  161.3376 C.ar    1  UNL1        0.0371
     16 C         142.4858  138.3265  160.0487 C.ar    1  UNL1        0.1447
     17 F         142.9512  137.3855  158.9773 F       1  UNL1       -0.2040
     18 C         140.9321  138.1857  163.6978 C.2     1  UNL1        0.3152
     19 N         141.8619  137.8776  164.8339 N.2     1  UNL1       -0.0991
     20 H         142.8292  138.0305  164.7335 H       1  UNL1        0.3633
     21 N         139.4582  137.9529  163.8507 N.pl3   1  UNL1       -0.1833
     22 C         138.8719  137.7269  165.2127 C.3     1  UNL1        0.2536
     23 C         138.5706  137.9460  162.6415 C.3     1  UNL1        0.2536
     24 C         143.8973  138.5239  155.4904 C.2     1  UNL1        0.2518
     25 O         142.4064  138.6159  155.6271 O.2     1  UNL1       -0.2697
     26 N         144.5565  137.1837  155.3514 N.am    1  UNL1       -0.2658
     27 H         145.5350  137.1233  155.2617 H       1  UNL1        0.1566
     28 C         143.7247  135.9354  155.3492 C.ar    1  UNL1        0.1344
     29 C         143.7502  135.0150  156.5333 C.ar    1  UNL1        0.0354
     30 C         142.9184  133.7668  156.5310 C.ar    1  UNL1        0.0158
     31 C         142.0611  133.4389  155.3446 C.ar    1  UNL1        0.0769
     32 CL        141.2294  132.1906  155.3424 Cl      1  UNL1       -0.0806
     33 C         142.0357  134.3593  154.1605 C.ar    1  UNL1        0.1116
     34 N         142.8674  135.6075  154.1627 N.ar    1  UNL1       -0.2281
     35 C         147.7206  143.1519  152.9370 C.3     1  UNL1        0.2525
     36 O         146.6491  142.1023  152.9170 O.3     1  UNL1       -0.4714
@<TRIPOS>BOND
     1    35    36    1
     2    36     1    1
     3     1     2   ar
     4     2     3   ar
     5     3     4   ar
     6     4     7    1
     7     7     8   am
     8     8     9    2
     9     8    11    1
    10    11    12   ar
    11    12    13   ar
    12    13    14   ar
    13    14    18    1
    14    18    19    2
    15    18    21    1
    16    21    22    1
    17    21    23    1
    18    14    15   ar
    19    15    16   ar
    20    16    17    1
    21     4     5   ar
    22     5    24    1
    23    24    25    2
    24    24    26   am
    25    26    28    1
    26    28    29   ar
    27    29    30   ar
    28    30    31   ar
    29    31    32    1
    30    31    33   ar
    31    33    34   ar
    32     5     6   ar
    33     6     1   ar
    34    16    11   ar
    35    34    28   ar
    36     7    10    1
    37    19    20    1
    38    26    27    1
@<TRIPOS>MOLECULE
*****
 36 38 0 0 0
SMALL
GASTEIGER

@<TRIPOS>ATOM
      1 C         142.3102  140.3820  169.0171 C.ar    1  UNL1        0.1390
      2 C         142.8276  139.0505  168.5595 C.ar    1  UNL1        0.0382
      3 C         143.0610  138.7980  167.0995 C.ar    1  UNL1        0.0179
      4 C         142.7770  139.8770  166.0970 C.ar    1  UNL1        0.0551
      5 C         142.2596  141.2085  166.5545 C.ar    1  UNL1        0.0702
      6 C         142.0262  141.4610  168.0146 C.ar    1  UNL1        0.0427
      7 N         143.0104  139.6245  164.6369 N.am    1  UNL1       -0.2802
      8 C         141.8705  139.2053  163.7567 C.2     1  UNL1        0.2517
      9 O         140.4971  139.0387  164.3365 O.2     1  UNL1       -0.2697
     10 H         143.9118  139.7339  164.2564 H       1  UNL1        0.1552
     11 C         142.1039  138.9528  162.2966 C.ar    1  UNL1        0.0811
     12 C         143.1816  138.0041  161.8624 C.ar    1  UNL1        0.0070
     13 C         143.4149  137.7516  160.4024 C.ar    1  UNL1        0.0076
     14 C         142.5707  138.4478  159.3765 C.ar    1  UNL1        0.0839
     15 C         141.4930  139.3966  159.8106 C.ar    1  UNL1        0.0371
     16 C         141.2596  139.6491  161.2707 C.ar    1  UNL1        0.1447
     17 F         140.1819  140.5978  161.7049 F       1  UNL1       -0.2040
     18 C         142.8041  138.1953  157.9164 C.2     1  UNL1        0.3152
     19 N         143.7923  139.0319  157.1592 N.2     1  UNL1       -0.0991
     20 H         144.2878  139.7467  157.6205 H       1  UNL1        0.3633
     21 N         142.0491  137.1062  157.2136 N.pl3   1  UNL1       -0.1833
     22 C         142.7173  135.7937  156.9291 C.3     1  UNL1        0.2536
     23 C         140.6261  137.3295  156.7953 C.3     1  UNL1        0.2536
     24 C         141.9756  142.2875  165.5520 C.2     1  UNL1        0.2518
     25 O         142.9397  143.4237  165.3796 O.2     1  UNL1       -0.2697
     26 N         140.7275  142.2305  164.7219 N.am    1  UNL1       -0.2658
     27 H         140.0948  141.4848  164.8351 H       1  UNL1        0.1566
     28 C         140.4435  143.3095  163.7194 C.ar    1  UNL1        0.1344
     29 C         139.3501  144.3035  163.9769 C.ar    1  UNL1        0.0354
     30 C         139.0661  145.3825  162.9744 C.ar    1  UNL1        0.0158
     31 C         139.8756  145.4675  161.7144 C.ar    1  UNL1        0.0769
     32 CL        139.5915  146.5466  160.7118 Cl      1  UNL1       -0.0806
     33 C         140.9690  144.4735  161.4569 C.ar    1  UNL1        0.1116
     34 N         141.2529  143.3945  162.4594 N.ar    1  UNL1       -0.2281
     35 C         140.7178  141.0480  170.9589 C.3     1  UNL1        0.2525
     36 O         142.0768  140.6345  170.4771 O.3     1  UNL1       -0.4714
@<TRIPOS>BOND
     1    35    36    1
     2    36     1    1
     3     1     2   ar
     4     2     3   ar
     5     3     4   ar
     6     4     7    1
     7     7     8   am
     8     8     9    2
     9     8    11    1
    10    11    12   ar
    11    12    13   ar
    12    13    14   ar
    13    14    18    1
    14    18    19    2
    15    18    21    1
    16    21    22    1
    17    21    23    1
    18    14    15   ar
    19    15    16   ar
    20    16    17    1
    21     4     5   ar
    22     5    24    1
    23    24    25    2
    24    24    26   am
    25    26    28    1
    26    28    29   ar
    27    29    30   ar
    28    30    31   ar
    29    31    32    1
    30    31    33   ar
    31    33    34   ar
    32     5     6   ar
    33     6     1   ar
    34    16    11   ar
    35    34    28   ar
    36     7    10    1
    37    19    20    1
    38    26    27    1
@<TRIPOS>MOLECULE
*****
 36 38 0 0 0
SMALL
GASTEIGER

@<TRIPOS>ATOM
      1 C         140.1795  140.5335  167.7969 C.ar    1  UNL1        0.1390
      2 C         140.2918  142.0292  167.7898 C.ar    1  UNL1        0.0382
      3 C         140.5908  142.7528  166.5103 C.ar    1  UNL1        0.0179
      4 C         140.7775  141.9807  165.2380 C.ar    1  UNL1        0.0551
      5 C         140.6652  140.4850  165.2451 C.ar    1  UNL1        0.0702
      6 C         140.3662  139.7614  166.5245 C.ar    1  UNL1        0.0427
      7 N         141.0765  142.7044  163.9586 N.am    1  UNL1       -0.2802
      8 C         139.9803  142.9586  162.9669 C.2     1  UNL1        0.2517
      9 O         138.5849  142.4892  163.2546 O.2     1  UNL1       -0.2697
     10 H         141.9923  143.0124  163.7697 H       1  UNL1        0.1552
     11 C         140.2793  143.6822  161.6874 C.ar    1  UNL1        0.0811
     12 C         140.9363  142.9563  160.5511 C.ar    1  UNL1        0.0070
     13 C         141.2353  143.6799  159.2717 C.ar    1  UNL1        0.0076
     14 C         140.8773  145.1295  159.1286 C.ar    1  UNL1        0.0839
     15 C         140.2202  145.8555  160.2649 C.ar    1  UNL1        0.0371
     16 C         139.9212  145.1319  161.5444 C.ar    1  UNL1        0.1447
     17 F         139.2642  145.8578  162.6807 F       1  UNL1       -0.2040
     18 C         141.1763  145.8531  157.8491 C.2     1  UNL1        0.3152
     19 N         142.5581  146.3749  157.5879 N.2     1  UNL1       -0.0991
     20 H         143.2688  146.2424  158.2561 H       1  UNL1        0.3633
     21 N         140.0934  146.0550  156.8309 N.pl3   1  UNL1       -0.1833
     22 C         139.2015  147.2582  156.9131 C.3     1  UNL1        0.2536
     23 C         139.9025  145.0536  155.7306 C.3     1  UNL1        0.2536
     24 C         140.8519  139.7128  163.9727 C.2     1  UNL1        0.2518
     25 O         139.8405  138.6826  163.5653 O.2     1  UNL1       -0.2697
     26 N         142.0499  139.9708  163.1077 N.am    1  UNL1       -0.2658
     27 H         142.7137  140.6469  163.3751 H       1  UNL1        0.1566
     28 C         142.2366  139.1986  161.8353 C.ar    1  UNL1        0.1344
     29 C         141.4602  139.5755  160.6085 C.ar    1  UNL1        0.0354
     30 C         141.6469  138.8033  159.3362 C.ar    1  UNL1        0.0158
     31 C         142.6100  137.6542  159.2907 C.ar    1  UNL1        0.0769
     32 CL        142.7967  136.8820  158.0183 Cl      1  UNL1       -0.0806
     33 C         143.3864  137.2773  160.5175 C.ar    1  UNL1        0.1116
     34 N         143.1997  138.0495  161.7898 N.ar    1  UNL1       -0.2281
     35 C         140.6485  140.1398  170.3217 C.3     1  UNL1        0.2525
     36 O         139.8805  139.8098  169.0763 O.3     1  UNL1       -0.4714
@<TRIPOS>BOND
     1    35    36    1
     2    36     1    1
     3     1     2   ar
     4     2     3   ar
     5     3     4   ar
     6     4     7    1
     7     7     8   am
     8     8     9    2
     9     8    11    1
    10    11    12   ar
    11    12    13   ar
    12    13    14   ar
    13    14    18    1
    14    18    19    2
    15    18    21    1
    16    21    22    1
    17    21    23    1
    18    14    15   ar
    19    15    16   ar
    20    16    17    1
    21     4     5   ar
    22     5    24    1
    23    24    25    2
    24    24    26   am
    25    26    28    1
    26    28    29   ar
    27    29    30   ar
    28    30    31   ar
    29    31    32    1
    30    31    33   ar
    31    33    34   ar
    32     5     6   ar
    33     6     1   ar
    34    16    11   ar
    35    34    28   ar
    36     7    10    1
    37    19    20    1
    38    26    27    1
@<TRIPOS>MOLECULE
*****
 36 38 0 0 0
SMALL
GASTEIGER

@<TRIPOS>ATOM
      1 C         142.8768  139.1903  168.0027 C.ar    1  UNL1        0.1390
      2 C         143.5531  138.0533  167.2958 C.ar    1  UNL1        0.0382
      3 C         143.5244  137.9782  165.7979 C.ar    1  UNL1        0.0179
      4 C         142.8195  139.0400  165.0070 C.ar    1  UNL1        0.0551
      5 C         142.1432  140.1770  165.7140 C.ar    1  UNL1        0.0702
      6 C         142.1719  140.2522  167.2119 C.ar    1  UNL1        0.0427
      7 N         142.7908  138.9648  163.5092 N.am    1  UNL1       -0.2802
      8 C         141.6671  138.2537  162.8153 C.2     1  UNL1        0.2517
      9 O         140.5719  137.6178  163.6193 O.2     1  UNL1       -0.2697
     10 H         143.5095  139.3822  162.9815 H       1  UNL1        0.1552
     11 C         141.6384  138.1785  161.3175 C.ar    1  UNL1        0.0811
     12 C         140.3947  138.5606  160.5711 C.ar    1  UNL1        0.0070
     13 C         140.3660  138.4854  159.0732 C.ar    1  UNL1        0.0076
     14 C         141.5810  138.0282  158.3218 C.ar    1  UNL1        0.0839
     15 C         142.8248  137.6461  159.0683 C.ar    1  UNL1        0.0371
     16 C         142.8535  137.7213  160.5661 C.ar    1  UNL1        0.1447
     17 F         144.0972  137.3393  161.3125 F       1  UNL1       -0.2040
     18 C         141.5523  137.9530  156.8240 C.2     1  UNL1        0.3152
     19 N         141.7514  139.1950  156.0067 N.2     1  UNL1       -0.0991
     20 H         141.9009  140.0595  156.4534 H       1  UNL1        0.3633
     21 N         141.3246  136.6358  156.1434 N.pl3   1  UNL1       -0.1833
     22 C         140.1446  136.4551  155.2350 C.3     1  UNL1        0.2536
     23 C         142.2767  135.4994  156.3711 C.3     1  UNL1        0.2536
     24 C         141.4383  141.2389  164.9231 C.2     1  UNL1        0.2518
     25 O         139.9875  141.0779  164.5776 O.2     1  UNL1       -0.2697
     26 N         142.1841  142.4618  164.4778 N.am    1  UNL1       -0.2658
     27 H         143.1363  142.5675  164.7046 H       1  UNL1        0.1566
     28 C         141.4791  143.5237  163.6869 C.ar    1  UNL1        0.1344
     29 C         140.3666  144.3111  164.3133 C.ar    1  UNL1        0.0354
     30 C         139.6618  145.3730  163.5224 C.ar    1  UNL1        0.0158
     31 C         140.0693  145.6474  162.1052 C.ar    1  UNL1        0.0769
     32 CL        139.3643  146.7094  161.3143 Cl      1  UNL1       -0.0806
     33 C         141.1818  144.8600  161.4788 C.ar    1  UNL1        0.1116
     34 N         141.8867  143.7982  162.2697 N.ar    1  UNL1       -0.2281
     35 C         142.5135  140.5357  170.1954 C.3     1  UNL1        0.2525
     36 O         142.9055  139.2655  169.5006 O.3     1  UNL1       -0.4714
@<TRIPOS>BOND
     1    35    36    1
     2    36     1    1
     3     1     2   ar
     4     2     3   ar
     5     3     4   ar
     6     4     7    1
     7     7     8   am
     8     8     9    2
     9     8    11    1
    10    11    12   ar
    11    12    13   ar
    12    13    14   ar
    13    14    18    1
    14    18    19    2
    15    18    21    1
    16    21    22    1
    17    21    23    1
    18    14    15   ar
    19    15    16   ar
    20    16    17    1
    21     4     5   ar
    22     5    24    1
    23    24    25    2
    24    24    26   am
    25    26    28    1
    26    28    29   ar
    27    29    30   ar
    28    30    31   ar
    29    31    32    1
    30    31    33   ar
    31    33    34   ar
    32     5     6   ar
    33     6     1   ar
    34    16    11   ar
    35    34    28   ar
    36     7    10    1
    37    19    20    1
    38    26    27    1
@<TRIPOS>MOLECULE
*****
 36 38 0 0 0
SMALL
GASTEIGER

@<TRIPOS>ATOM
      1 C         140.6847  140.8284  168.5091 C.ar    1  UNL1        0.1390
      2 C         140.3815  142.2894  168.3552 C.ar    1  UNL1        0.0382
      3 C         140.3039  142.8992  166.9869 C.ar    1  UNL1        0.0179
      4 C         140.5295  142.0480  165.7726 C.ar    1  UNL1        0.0551
      5 C         140.8327  140.5871  165.9265 C.ar    1  UNL1        0.0702
      6 C         140.9103  139.9773  167.2947 C.ar    1  UNL1        0.0427
      7 N         140.4519  142.6579  164.4043 N.am    1  UNL1       -0.2802
      8 C         141.6968  143.1610  163.7357 C.2     1  UNL1        0.2517
      9 O         143.0194  143.0543  164.4354 O.2     1  UNL1       -0.2697
     10 H         139.5839  142.7279  163.9451 H       1  UNL1        0.1552
     11 C         141.6192  143.7708  162.3675 C.ar    1  UNL1        0.0811
     12 C         140.6309  144.8641  162.0886 C.ar    1  UNL1        0.0070
     13 C         140.5533  145.4739  160.7203 C.ar    1  UNL1        0.0076
     14 C         141.4641  144.9904  159.6310 C.ar    1  UNL1        0.0839
     15 C         142.4525  143.8970  159.9099 C.ar    1  UNL1        0.0371
     16 C         142.5301  143.2872  161.2781 C.ar    1  UNL1        0.1447
     17 F         143.5184  142.1939  161.5570 F       1  UNL1       -0.2040
     18 C         141.3865  145.6002  158.2627 C.2     1  UNL1        0.3152
     19 N         142.5559  146.3626  157.7140 N.2     1  UNL1       -0.0991
     20 H         143.3744  146.4628  158.2519 H       1  UNL1        0.3633
     21 N         140.1394  145.4476  157.4432 N.pl3   1  UNL1       -0.1833
     22 C         139.5487  146.6381  156.7477 C.3     1  UNL1        0.2536
     23 C         139.4831  144.1045  157.3192 C.3     1  UNL1        0.2536
     24 C         141.0583  139.7359  164.7121 C.2     1  UNL1        0.2518
     25 O         140.2621  138.4795  164.5185 O.2     1  UNL1       -0.2697
     26 N         142.0800  140.1412  163.6915 N.am    1  UNL1       -0.2658
     27 H         142.6026  140.9658  163.8186 H       1  UNL1        0.1566
     28 C         142.3056  139.2900  162.4771 C.ar    1  UNL1        0.1344
     29 C         143.5303  138.4291  162.3816 C.ar    1  UNL1        0.0354
     30 C         143.7558  137.5780  161.1672 C.ar    1  UNL1        0.0158
     31 C         142.7567  137.5877  160.0484 C.ar    1  UNL1        0.0769
     32 CL        142.9824  136.7365  158.8340 Cl      1  UNL1       -0.0806
     33 C         141.5321  138.4485  160.1439 C.ar    1  UNL1        0.1116
     34 N         141.3065  139.2997  161.3583 N.ar    1  UNL1       -0.2281
     35 C         140.9111  141.0983  171.0831 C.3     1  UNL1        0.2525
     36 O         140.7622  140.2186  169.8773 O.3     1  UNL1       -0.4714
@<TRIPOS>BOND
     1    35    36    1
     2    36     1    1
     3     1     2   ar
     4     2     3   ar
     5     3     4   ar
     6     4     7    1
     7     7     8   am
     8     8     9    2
     9     8    11    1
    10    11    12   ar
    11    12    13   ar
    12    13    14   ar
    13    14    18    1
    14    18    19    2
    15    18    21    1
    16    21    22    1
    17    21    23    1
    18    14    15   ar
    19    15    16   ar
    20    16    17    1
    21     4     5   ar
    22     5    24    1
    23    24    25    2
    24    24    26   am
    25    26    28    1
    26    28    29   ar
    27    29    30   ar
    28    30    31   ar
    29    31    32    1
    30    31    33   ar
    31    33    34   ar
    32     5     6   ar
    33     6     1   ar
    34    16    11   ar
    35    34    28   ar
    36     7    10    1
    37    19    20    1
    38    26    27    1
@<TRIPOS>MOLECULE
*****
 36 38 0 0 0
SMALL
GASTEIGER

@<TRIPOS>ATOM
      1 C         138.5278  139.0598  165.5958 C.ar    1  UNL1        0.1390
      2 C         138.8737  137.6754  165.1337 C.ar    1  UNL1        0.0382
      3 C         139.2165  137.4289  163.6944 C.ar    1  UNL1        0.0179
      4 C         139.2134  138.5668  162.7172 C.ar    1  UNL1        0.0551
      5 C         138.8675  139.9512  163.1792 C.ar    1  UNL1        0.0702
      6 C         138.5247  140.1978  164.6186 C.ar    1  UNL1        0.0427
      7 N         139.5563  138.3203  161.2778 N.am    1  UNL1       -0.2802
      8 C         140.9246  138.6577  160.7643 C.2     1  UNL1        0.2517
      9 O         141.9502  139.2417  161.6902 O.2     1  UNL1       -0.2697
     10 H         138.8832  137.9370  160.6701 H       1  UNL1        0.1552
     11 C         141.2675  138.4112  159.3250 C.ar    1  UNL1        0.0811
     12 C         140.3904  138.9622  158.2401 C.ar    1  UNL1        0.0070
     13 C         140.7332  138.7157  156.8008 C.ar    1  UNL1        0.0076
     14 C         141.9531  137.9181  156.4463 C.ar    1  UNL1        0.0839
     15 C         142.8303  137.3670  157.5313 C.ar    1  UNL1        0.0371
     16 C         142.4874  137.6135  158.9706 C.ar    1  UNL1        0.1447
     17 F         143.3645  137.0625  160.0555 F       1  UNL1       -0.2040
     18 C         142.2960  137.6716  155.0070 C.2     1  UNL1        0.3152
     19 N         143.2918  138.5519  154.3118 N.2     1  UNL1       -0.0991
     20 H         143.7205  139.2914  154.8002 H       1  UNL1        0.3633
     21 N         141.6428  136.5448  154.2628 N.pl3   1  UNL1       -0.1833
     22 C         141.0201  135.4084  155.0184 C.3     1  UNL1        0.2536
     23 C         141.6124  136.5543  152.7632 C.3     1  UNL1        0.2536
     24 C         138.8644  141.0893  162.2020 C.2     1  UNL1        0.2518
     25 O         137.5652  141.6165  161.6689 O.2     1  UNL1       -0.2697
     26 N         140.1604  141.7000  161.7578 N.am    1  UNL1       -0.2658
     27 H         141.0131  141.3539  162.1077 H       1  UNL1        0.1566
     28 C         140.1573  142.8380  160.7806 C.ar    1  UNL1        0.1344
     29 C         140.0142  142.5655  159.3125 C.ar    1  UNL1        0.0354
     30 C         140.0111  143.7035  158.3354 C.ar    1  UNL1        0.0158
     31 C         140.1511  145.1140  158.8262 C.ar    1  UNL1        0.0769
     32 CL        140.1480  146.2520  157.8490 Cl      1  UNL1       -0.0806
     33 C         140.2943  145.3865  160.2943 C.ar    1  UNL1        0.1116
     34 N         140.2974  144.2485  161.2714 N.ar    1  UNL1       -0.2281
     35 C         139.2233  139.8504  167.9709 C.3     1  UNL1        0.2525
     36 O         138.1849  139.3063  167.0352 O.3     1  UNL1       -0.4714
@<TRIPOS>BOND
     1    35    36    1
     2    36     1    1
     3     1     2   ar
     4     2     3   ar
     5     3     4   ar
     6     4     7    1
     7     7     8   am
     8     8     9    2
     9     8    11    1
    10    11    12   ar
    11    12    13   ar
    12    13    14   ar
    13    14    18    1
    14    18    19    2
    15    18    21    1
    16    21    22    1
    17    21    23    1
    18    14    15   ar
    19    15    16   ar
    20    16    17    1
    21     4     5   ar
    22     5    24    1
    23    24    25    2
    24    24    26   am
    25    26    28    1
    26    28    29   ar
    27    29    30   ar
    28    30    31   ar
    29    31    32    1
    30    31    33   ar
    31    33    34   ar
    32     5     6   ar
    33     6     1   ar
    34    16    11   ar
    35    34    28   ar
    36     7    10    1
    37    19    20    1
    38    26    27    1
@<TRIPOS>MOLECULE
*****
 36 38 0 0 0
SMALL
GASTEIGER

@<TRIPOS>ATOM
      1 C         142.8754  139.1768  168.1207 C.ar    1  UNL1        0.1390
      2 C         143.6326  138.1134  167.3820 C.ar    1  UNL1        0.0382
      3 C         143.9494  138.2920  165.9268 C.ar    1  UNL1        0.0179
      4 C         143.5090  139.5340  165.2102 C.ar    1  UNL1        0.0551
      5 C         142.7519  140.5974  165.9490 C.ar    1  UNL1        0.0702
      6 C         142.4350  140.4188  167.4042 C.ar    1  UNL1        0.0427
      7 N         143.8259  139.7125  163.7550 N.am    1  UNL1       -0.2802
      8 C         142.7780  139.4312  162.7193 C.2     1  UNL1        0.2517
      9 O         141.4132  138.9713  163.1388 O.2     1  UNL1       -0.2697
     10 H         144.7216  140.0143  163.4797 H       1  UNL1        0.1552
     11 C         143.0948  139.6098  161.2640 C.ar    1  UNL1        0.0811
     12 C         143.6568  140.9109  160.7730 C.ar    1  UNL1        0.0070
     13 C         143.9736  141.0895  159.3177 C.ar    1  UNL1        0.0076
     14 C         143.7284  139.9669  158.3535 C.ar    1  UNL1        0.0839
     15 C         143.1664  138.6657  158.8446 C.ar    1  UNL1        0.0371
     16 C         142.8496  138.4871  160.2998 C.ar    1  UNL1        0.1447
     17 F         142.2876  137.1860  160.7909 F       1  UNL1       -0.2040
     18 C         144.0453  140.1455  156.8983 C.2     1  UNL1        0.3152
     19 N         145.4689  140.0936  156.4288 N.2     1  UNL1       -0.0991
     20 H         146.1954  139.9424  157.0758 H       1  UNL1        0.3633
     21 N         142.9383  140.3759  155.9125 N.pl3   1  UNL1       -0.1833
     22 C         142.2625  141.7132  155.8427 C.3     1  UNL1        0.2536
     23 C         142.5073  139.2690  154.9966 C.3     1  UNL1        0.2536
     24 C         142.3115  141.8395  165.2324 C.2     1  UNL1        0.2518
     25 O         143.0306  143.1350  165.4660 O.2     1  UNL1       -0.2697
     26 N         141.1520  141.7861  164.2823 N.am    1  UNL1       -0.2658
     27 H         140.6800  140.9358  164.1290 H       1  UNL1        0.1566
     28 C         140.7116  143.0281  163.5658 C.ar    1  UNL1        0.1344
     29 C         141.4351  143.4783  162.3314 C.ar    1  UNL1        0.0354
     30 C         140.9947  144.7204  161.6149 C.ar    1  UNL1        0.0158
     31 C         139.8308  145.5122  162.1329 C.ar    1  UNL1        0.0769
     32 CL        139.3904  146.7543  161.4163 Cl      1  UNL1       -0.0806
     33 C         139.1072  145.0620  163.3673 C.ar    1  UNL1        0.1116
     34 N         139.5477  143.8200  164.0837 N.ar    1  UNL1       -0.2281
     35 C         142.0284  140.1516  170.3751 C.3     1  UNL1        0.2525
     36 O         142.5586  138.9983  169.5760 O.3     1  UNL1       -0.4714
@<TRIPOS>BOND
     1    35    36    1
     2    36     1    1
     3     1     2   ar
     4     2     3   ar
     5     3     4   ar
     6     4     7    1
     7     7     8   am
     8     8     9    2
     9     8    11    1
    10    11    12   ar
    11    12    13   ar
    12    13    14   ar
    13    14    18    1
    14    18    19    2
    15    18    21    1
    16    21    22    1
    17    21    23    1
    18    14    15   ar
    19    15    16   ar
    20    16    17    1
    21     4     5   ar
    22     5    24    1
    23    24    25    2
    24    24    26   am
    25    26    28    1
    26    28    29   ar
    27    29    30   ar
    28    30    31   ar
    29    31    32    1
    30    31    33   ar
    31    33    34   ar
    32     5     6   ar
    33     6     1   ar
    34    16    11   ar
    35    34    28   ar
    36     7    10    1
    37    19    20    1
    38    26    27    1
@<TRIPOS>MOLECULE
*****
 36 38 0 0 0
SMALL
GASTEIGER

@<TRIPOS>ATOM
      1 C         142.2701  134.1828  154.9647 C.ar    1  UNL1        0.1390
      2 C         143.4422  134.4000  155.8751 C.ar    1  UNL1        0.0382
      3 C         143.4511  135.5634  156.8218 C.ar    1  UNL1        0.0179
      4 C         142.2879  136.5097  156.8581 C.ar    1  UNL1        0.0551
      5 C         141.1157  136.2925  155.9477 C.ar    1  UNL1        0.0702
      6 C         141.1068  135.1291  155.0010 C.ar    1  UNL1        0.0427
      7 N         142.2968  137.6732  157.8048 N.am    1  UNL1       -0.2802
      8 C         143.1228  138.8862  157.4947 C.2     1  UNL1        0.2517
      9 O         143.9400  138.9357  156.2378 O.2     1  UNL1       -0.2697
     10 H         141.7604  137.6406  158.6298 H       1  UNL1        0.1552
     11 C         143.1317  140.0496  158.4414 C.ar    1  UNL1        0.0811
     12 C         142.0520  140.1848  159.4738 C.ar    1  UNL1        0.0070
     13 C         142.0609  141.3482  160.4205 C.ar    1  UNL1        0.0076
     14 C         143.1495  142.3765  160.3349 C.ar    1  UNL1        0.0839
     15 C         144.2293  142.2414  159.3024 C.ar    1  UNL1        0.0371
     16 C         144.2204  141.0780  158.3557 C.ar    1  UNL1        0.1447
     17 F         145.3002  140.9428  157.3234 F       1  UNL1       -0.2040
     18 C         143.1584  143.5400  161.2816 C.2     1  UNL1        0.3152
     19 N         142.3199  144.7494  160.9915 N.2     1  UNL1       -0.0991
     20 H         141.7637  144.7796  160.1797 H       1  UNL1        0.3633
     21 N         144.0059  143.4940  162.5184 N.pl3   1  UNL1       -0.1833
     22 C         144.9484  142.3483  162.7396 C.3     1  UNL1        0.2536
     23 C         143.9108  144.5938  163.5340 C.3     1  UNL1        0.2536
     24 C         139.9524  137.2388  155.9840 C.2     1  UNL1        0.2518
     25 O         139.4239  137.7275  157.3000 O.2     1  UNL1       -0.2697
     26 N         139.3176  137.6964  154.7043 N.am    1  UNL1       -0.2658
     27 H         139.6644  137.3756  153.8406 H       1  UNL1        0.1566
     28 C         138.1542  138.6427  154.7406 C.ar    1  UNL1        0.1344
     29 C         138.3888  140.1129  154.9234 C.ar    1  UNL1        0.0354
     30 C         137.2255  141.0591  154.9597 C.ar    1  UNL1        0.0158
     31 C         135.8276  140.5351  154.8132 C.ar    1  UNL1        0.0769
     32 CL        134.6643  141.4814  154.8495 Cl      1  UNL1       -0.0806
     33 C         135.5931  139.0649  154.6305 C.ar    1  UNL1        0.1116
     34 N         136.7564  138.1187  154.5942 N.ar    1  UNL1       -0.2281
     35 C         141.4014  131.8245  154.3061 C.3     1  UNL1        0.2525
     36 O         142.2612  133.0193  154.0180 O.3     1  UNL1       -0.4714
@<TRIPOS>BOND
     1    35    36    1
     2    36     1    1
     3     1     2   ar
     4     2     3   ar
     5     3     4   ar
     6     4     7    1
     7     7     8   am
     8     8     9    2
     9     8    11    1
    10    11    12   ar
    11    12    13   ar
    12    13    14   ar
    13    14    18    1
    14    18    19    2
    15    18    21    1
    16    21    22    1
    17    21    23    1
    18    14    15   ar
    19    15    16   ar
    20    16    17    1
    21     4     5   ar
    22     5    24    1
    23    24    25    2
    24    24    26   am
    25    26    28    1
    26    28    29   ar
    27    29    30   ar
    28    30    31   ar
    29    31    32    1
    30    31    33   ar
    31    33    34   ar
    32     5     6   ar
    33     6     1   ar
    34    16    11   ar
    35    34    28   ar
    36     7    10    1
    37    19    20    1
    38    26    27    1
