@<TRIPOS>MOLECULE
*****
 23 25 0 0 0
SMALL
GASTEIGER

@<TRIPOS>ATOM
      1 C         140.3846  139.7742  166.8548 C.ar    1  UNL1       -0.0144
      2 C         141.6633  139.3144  166.2196 C.ar    1  UNL1        0.0051
      3 S         142.7482  139.3927  167.2525 S.2     1  UNL1       -0.0915
      4 C         142.1400  139.9008  168.5260 C.ar    1  UNL1        0.0288
      5 C         142.7277  140.1792  169.8777 C.ar    1  UNL1        0.0065
      6 C         141.8545  140.6934  170.9836 C.ar    1  UNL1        0.0005
      7 C         140.3937  140.9292  170.7379 C.ar    1  UNL1        0.0000
      8 C         139.8060  140.6508  169.3862 C.ar    1  UNL1        0.0002
      9 C         140.6792  140.1366  168.2803 C.ar    1  UNL1        0.0025
     10 C         138.0300  138.7749  166.3988 C.3     1  UNL1        0.0110
     11 C         139.0461  139.8570  166.1827 C.3     1  UNL1        0.0627
     12 C         138.7238  141.0218  165.2943 C.ar    1  UNL1        0.0629
     13 C         139.3683  142.3538  165.5405 C.ar    1  UNL1        0.0174
     14 C         139.0460  143.5187  164.6522 C.ar    1  UNL1        0.0325
     15 C         138.0790  143.3516  163.5177 C.ar    1  UNL1        0.1592
     16 F         137.7567  144.5165  162.6293 F       1  UNL1       -0.2025
     17 C         137.4345  142.0197  163.2715 C.ar    1  UNL1        0.1280
     18 N         137.7568  140.8548  164.1598 N.ar    1  UNL1       -0.2455
     19 C         141.8281  138.8568  164.8006 C.3     1  UNL1        0.0499
     20 C         141.0651  137.6649  164.3036 C.3     1  UNL1        0.0774
     21 N         140.3311  137.7357  162.9973 N.3     1  UNL1       -0.2700
     22 C         138.8349  137.6315  162.9712 C.3     1  UNL1        0.0897
     23 C         141.0932  137.9106  161.7173 C.3     1  UNL1        0.0897
@<TRIPOS>BOND
     1    11    10    1
     2    11    12    1
     3    12    13   ar
     4    13    14   ar
     5    14    15   ar
     6    15    16    1
     7    15    17   ar
     8    17    18   ar
     9    11     1    1
    10     1     2   ar
    11     2    19    1
    12    19    20    1
    13    20    21    1
    14    21    22    1
    15    21    23    1
    16     2     3   ar
    17     3     4   ar
    18     4     5   ar
    19     5     6   ar
    20     6     7   ar
    21     7     8   ar
    22     8     9   ar
    23    18    12   ar
    24     9     1   ar
    25     9     4   ar
@<TRIPOS>MOLECULE
*****
 23 25 0 0 0
SMALL
GASTEIGER

@<TRIPOS>ATOM
      1 C         142.7448  138.7840  164.9015 C.ar    1  UNL1       -0.0144
      2 C         143.5758  139.1595  163.7105 C.ar    1  UNL1        0.0051
      3 S         142.7277  138.9974  162.4839 S.2     1  UNL1       -0.0915
      4 C         141.3725  138.5217  162.9169 C.ar    1  UNL1        0.0288
      5 C         140.1303  138.1917  162.1436 C.ar    1  UNL1        0.0065
      6 C         138.8988  137.7298  162.8645 C.ar    1  UNL1        0.0005
      7 C         138.9094  137.5979  164.3587 C.ar    1  UNL1        0.0000
      8 C         140.1516  137.9279  165.1319 C.ar    1  UNL1        0.0002
      9 C         141.3831  138.3899  164.4110 C.ar    1  UNL1        0.0025
     10 C         143.9879  137.6502  166.8813 C.3     1  UNL1        0.0110
     11 C         143.1962  138.7998  166.3318 C.3     1  UNL1        0.0627
     12 C         142.8561  139.9651  167.2128 C.ar    1  UNL1        0.0629
     13 C         142.4553  141.2753  166.6021 C.ar    1  UNL1        0.0174
     14 C         142.1151  142.4407  167.4831 C.ar    1  UNL1        0.0325
     15 C         142.1757  142.2959  168.9749 C.ar    1  UNL1        0.1592
     16 F         141.8355  143.4613  169.8559 F       1  UNL1       -0.2025
     17 C         142.5764  140.9858  169.5856 C.ar    1  UNL1        0.1280
     18 N         142.9166  139.8204  168.7046 N.ar    1  UNL1       -0.2455
     19 C         145.0041  139.6167  163.7407 C.3     1  UNL1        0.0499
     20 C         145.3308  141.0316  164.1165 C.3     1  UNL1        0.0774
     21 N         144.8136  142.1672  163.2842 N.3     1  UNL1       -0.2700
     22 C         144.1839  143.3567  163.9467 C.3     1  UNL1        0.0897
     23 C         144.9260  142.1135  161.7894 C.3     1  UNL1        0.0897
@<TRIPOS>BOND
     1    11    10    1
     2    11    12    1
     3    12    13   ar
     4    13    14   ar
     5    14    15   ar
     6    15    16    1
     7    15    17   ar
     8    17    18   ar
     9    11     1    1
    10     1     2   ar
    11     2    19    1
    12    19    20    1
    13    20    21    1
    14    21    22    1
    15    21    23    1
    16     2     3   ar
    17     3     4   ar
    18     4     5   ar
    19     5     6   ar
    20     6     7   ar
    21     7     8   ar
    22     8     9   ar
    23    18    12   ar
    24     9     1   ar
    25     9     4   ar
@<TRIPOS>MOLECULE
*****
 23 25 0 0 0
SMALL
GASTEIGER

@<TRIPOS>ATOM
      1 C         140.3990  139.7333  166.7958 C.ar    1  UNL1       -0.0144
      2 C         141.6906  139.2709  166.1891 C.ar    1  UNL1        0.0051
      3 S         142.7571  139.3685  167.2393 S.2     1  UNL1       -0.0915
      4 C         142.1247  139.8912  168.4951 C.ar    1  UNL1        0.0288
      5 C         142.6877  140.1909  169.8527 C.ar    1  UNL1        0.0065
      6 C         141.7933  140.7162  170.9362 C.ar    1  UNL1        0.0005
      7 C         140.3359  140.9417  170.6621 C.ar    1  UNL1        0.0000
      8 C         139.7729  140.6419  169.3044 C.ar    1  UNL1        0.0002
      9 C         140.6673  140.1167  168.2209 C.ar    1  UNL1        0.0025
     10 C         138.0791  138.6890  166.2689 C.3     1  UNL1        0.0110
     11 C         139.0721  139.8006  166.0996 C.3     1  UNL1        0.0627
     12 C         138.7381  140.9792  165.2341 C.ar    1  UNL1        0.0629
     13 C         139.3805  142.3089  165.4972 C.ar    1  UNL1        0.0174
     14 C         139.0465  143.4877  164.6317 C.ar    1  UNL1        0.0325
     15 C         138.0700  143.3367  163.5031 C.ar    1  UNL1        0.1592
     16 F         137.7360  144.5154  162.6376 F       1  UNL1       -0.2025
     17 C         137.4276  142.0070  163.2401 C.ar    1  UNL1        0.1280
     18 N         137.7616  140.8283  164.1055 N.ar    1  UNL1       -0.2455
     19 C         141.8820  138.7946  164.7797 C.3     1  UNL1        0.0499
     20 C         142.4093  139.7337  163.7357 C.3     1  UNL1        0.0774
     21 N         143.7962  139.5509  163.1943 N.3     1  UNL1       -0.2700
     22 C         143.9975  139.2064  161.7483 C.3     1  UNL1        0.0897
     23 C         144.9818  139.7128  164.0988 C.3     1  UNL1        0.0897
@<TRIPOS>BOND
     1    11    10    1
     2    11    12    1
     3    12    13   ar
     4    13    14   ar
     5    14    15   ar
     6    15    16    1
     7    15    17   ar
     8    17    18   ar
     9    11     1    1
    10     1     2   ar
    11     2    19    1
    12    19    20    1
    13    20    21    1
    14    21    22    1
    15    21    23    1
    16     2     3   ar
    17     3     4   ar
    18     4     5   ar
    19     5     6   ar
    20     6     7   ar
    21     7     8   ar
    22     8     9   ar
    23    18    12   ar
    24     9     1   ar
    25     9     4   ar
@<TRIPOS>MOLECULE
*****
 23 25 0 0 0
SMALL
GASTEIGER

@<TRIPOS>ATOM
      1 C         140.2770  140.6878  165.4722 C.ar    1  UNL1       -0.0144
      2 C         139.4192  139.6368  164.8323 C.ar    1  UNL1        0.0051
      3 S         138.1978  140.3091  164.2790 S.2     1  UNL1       -0.0915
      4 C         138.3008  141.7756  164.5769 C.ar    1  UNL1        0.0288
      5 C         137.3904  142.9281  164.2719 C.ar    1  UNL1        0.0065
      6 C         137.7651  144.3146  164.7045 C.ar    1  UNL1        0.0005
      7 C         139.0502  144.5486  165.4419 C.ar    1  UNL1        0.0000
      8 C         139.9605  143.3962  165.7469 C.ar    1  UNL1        0.0002
      9 C         139.5858  142.0097  165.3144 C.ar    1  UNL1        0.0025
     10 C         141.6341  139.9001  167.5430 C.3     1  UNL1        0.0110
     11 C         141.5948  140.4574  166.1508 C.3     1  UNL1        0.0627
     12 C         142.8731  140.7842  165.4374 C.ar    1  UNL1        0.0629
     13 C         143.3763  142.1971  165.4095 C.ar    1  UNL1        0.0174
     14 C         144.6547  142.5240  164.6961 C.ar    1  UNL1        0.0325
     15 C         145.4298  141.4380  164.0106 C.ar    1  UNL1        0.1592
     16 F         146.7082  141.7650  163.2973 F       1  UNL1       -0.2025
     17 C         144.9266  140.0253  164.0386 C.ar    1  UNL1        0.1280
     18 N         143.6483  139.6984  164.7519 N.ar    1  UNL1       -0.2455
     19 C         139.7284  138.1708  164.7586 C.3     1  UNL1        0.0499
     20 C         139.4124  137.3994  163.5117 C.3     1  UNL1        0.0774
     21 N         140.0970  137.7446  162.2224 N.3     1  UNL1       -0.2700
     22 C         139.2840  138.1113  161.0163 C.3     1  UNL1        0.0897
     23 C         141.5945  137.7230  162.1392 C.3     1  UNL1        0.0897
@<TRIPOS>BOND
     1    11    10    1
     2    11    12    1
     3    12    13   ar
     4    13    14   ar
     5    14    15   ar
     6    15    16    1
     7    15    17   ar
     8    17    18   ar
     9    11     1    1
    10     1     2   ar
    11     2    19    1
    12    19    20    1
    13    20    21    1
    14    21    22    1
    15    21    23    1
    16     2     3   ar
    17     3     4   ar
    18     4     5   ar
    19     5     6   ar
    20     6     7   ar
    21     7     8   ar
    22     8     9   ar
    23    18    12   ar
    24     9     1   ar
    25     9     4   ar
@<TRIPOS>MOLECULE
*****
 23 25 0 0 0
SMALL
GASTEIGER

@<TRIPOS>ATOM
      1 C         141.1985  141.6507  166.2394 C.ar    1  UNL1       -0.0144
      2 C         140.8166  140.2902  165.7363 C.ar    1  UNL1        0.0051
      3 S         140.0367  139.5991  166.8152 S.2     1  UNL1       -0.0915
      4 C         139.9366  140.5325  167.9852 C.ar    1  UNL1        0.0288
      5 C         139.2844  140.3917  169.3286 C.ar    1  UNL1        0.0065
      6 C         139.3503  141.5188  170.3161 C.ar    1  UNL1        0.0005
      7 C         140.0683  142.7867  169.9602 C.ar    1  UNL1        0.0000
      8 C         140.7205  142.9276  168.6168 C.ar    1  UNL1        0.0002
      9 C         140.6547  141.8005  167.6293 C.ar    1  UNL1        0.0025
     10 C         143.4709  142.7769  165.6753 C.3     1  UNL1        0.0110
     11 C         141.9860  142.6807  165.4851 C.3     1  UNL1        0.0627
     12 C         141.2889  143.6143  164.5406 C.ar    1  UNL1        0.0629
     13 C         139.8567  143.9912  164.7791 C.ar    1  UNL1        0.0174
     14 C         139.1595  144.9249  163.8347 C.ar    1  UNL1        0.0325
     15 C         139.8945  145.4818  162.6516 C.ar    1  UNL1        0.1592
     16 F         139.1973  146.4155  161.7071 F       1  UNL1       -0.2025
     17 C         141.3266  145.1050  162.4131 C.ar    1  UNL1        0.1280
     18 N         142.0239  144.1713  163.3576 N.ar    1  UNL1       -0.2455
     19 C         141.1551  139.7208  164.3905 C.3     1  UNL1        0.0499
     20 C         142.1972  138.6486  164.2703 C.3     1  UNL1        0.0774
     21 N         143.5155  138.8023  164.9692 N.3     1  UNL1       -0.2700
     22 C         144.6400  139.5331  164.2971 C.3     1  UNL1        0.0897
     23 C         143.7094  138.2254  166.3402 C.3     1  UNL1        0.0897
@<TRIPOS>BOND
     1    11    10    1
     2    11    12    1
     3    12    13   ar
     4    13    14   ar
     5    14    15   ar
     6    15    16    1
     7    15    17   ar
     8    17    18   ar
     9    11     1    1
    10     1     2   ar
    11     2    19    1
    12    19    20    1
    13    20    21    1
    14    21    22    1
    15    21    23    1
    16     2     3   ar
    17     3     4   ar
    18     4     5   ar
    19     5     6   ar
    20     6     7   ar
    21     7     8   ar
    22     8     9   ar
    23    18    12   ar
    24     9     1   ar
    25     9     4   ar
@<TRIPOS>MOLECULE
*****
 23 25 0 0 0
SMALL
GASTEIGER

@<TRIPOS>ATOM
      1 C         142.9489  141.4609  166.3484 C.ar    1  UNL1       -0.0144
      2 C         142.9754  140.0716  165.7833 C.ar    1  UNL1        0.0051
      3 S         142.7989  139.1064  166.9179 S.2     1  UNL1       -0.0915
      4 C         142.6633  139.8991  168.1841 C.ar    1  UNL1        0.0288
      5 C         142.4674  139.4839  169.6121 C.ar    1  UNL1        0.0065
      6 C         142.3642  140.5239  170.6881 C.ar    1  UNL1        0.0005
      7 C         142.4569  141.9791  170.3361 C.ar    1  UNL1        0.0000
      8 C         142.6528  142.3943  168.9081 C.ar    1  UNL1        0.0002
      9 C         142.7560  141.3543  167.8321 C.ar    1  UNL1        0.0025
     10 C         144.4297  143.3995  165.4545 C.3     1  UNL1        0.0110
     11 C         143.0904  142.7334  165.5668 C.3     1  UNL1        0.0627
     12 C         141.8927  143.3397  164.8977 C.ar    1  UNL1        0.0629
     13 C         140.5329  143.1875  165.5124 C.ar    1  UNL1        0.0174
     14 C         139.3351  143.7939  164.8433 C.ar    1  UNL1        0.0325
     15 C         139.4972  144.5526  163.5595 C.ar    1  UNL1        0.1592
     16 F         138.2995  145.1590  162.8904 F       1  UNL1       -0.2025
     17 C         140.8570  144.7048  162.9448 C.ar    1  UNL1        0.1280
     18 N         142.0547  144.0984  163.6139 N.ar    1  UNL1       -0.2455
     19 C         143.1480  139.7109  164.3376 C.3     1  UNL1        0.0499
     20 C         144.4808  139.8916  163.6736 C.3     1  UNL1        0.0774
     21 N         144.5601  140.4970  162.3035 N.3     1  UNL1       -0.2700
     22 C         145.0564  141.9022  162.1320 C.3     1  UNL1        0.0897
     23 C         144.1432  139.6974  161.1049 C.3     1  UNL1        0.0897
@<TRIPOS>BOND
     1    11    10    1
     2    11    12    1
     3    12    13   ar
     4    13    14   ar
     5    14    15   ar
     6    15    16    1
     7    15    17   ar
     8    17    18   ar
     9    11     1    1
    10     1     2   ar
    11     2    19    1
    12    19    20    1
    13    20    21    1
    14    21    22    1
    15    21    23    1
    16     2     3   ar
    17     3     4   ar
    18     4     5   ar
    19     5     6   ar
    20     6     7   ar
    21     7     8   ar
    22     8     9   ar
    23    18    12   ar
    24     9     1   ar
    25     9     4   ar
@<TRIPOS>MOLECULE
*****
 23 25 0 0 0
SMALL
GASTEIGER

@<TRIPOS>ATOM
      1 C         142.7442  140.0695  164.9716 C.ar    1  UNL1       -0.0144
      2 C         141.9445  139.6078  163.7895 C.ar    1  UNL1        0.0051
      3 S         141.8661  140.7422  162.8114 S.2     1  UNL1       -0.0915
      4 C         142.6173  141.9050  163.3889 C.ar    1  UNL1        0.0288
      5 C         142.8773  143.2887  162.8715 C.ar    1  UNL1        0.0065
      6 C         143.6800  144.2567  163.6892 C.ar    1  UNL1        0.0005
      7 C         144.2227  143.8409  165.0244 C.ar    1  UNL1        0.0000
      8 C         143.9627  142.4572  165.5417 C.ar    1  UNL1        0.0002
      9 C         143.1600  141.4893  164.7240 C.ar    1  UNL1        0.0025
     10 C         144.1740  138.2393  166.1364 C.3     1  UNL1        0.0110
     11 C         143.0708  139.2545  166.1878 C.3     1  UNL1        0.0627
     12 C         142.2943  139.4546  167.4554 C.ar    1  UNL1        0.0629
     13 C         140.8878  139.9729  167.3995 C.ar    1  UNL1        0.0174
     14 C         140.1112  140.1730  168.6672 C.ar    1  UNL1        0.0325
     15 C         140.7412  139.8547  169.9908 C.ar    1  UNL1        0.1592
     16 F         139.9646  140.0548  171.2584 F       1  UNL1       -0.2025
     17 C         142.1476  139.3364  170.0467 C.ar    1  UNL1        0.1280
     18 N         142.9242  139.1363  168.7791 N.ar    1  UNL1       -0.2455
     19 C         141.3310  138.2500  163.6161 C.3     1  UNL1        0.0499
     20 C         139.9586  137.9729  164.1542 C.3     1  UNL1        0.0774
     21 N         138.8054  138.8442  163.7527 N.3     1  UNL1       -0.2700
     22 C         138.1854  138.6893  162.3956 C.3     1  UNL1        0.0897
     23 C         138.2724  139.8702  164.7082 C.3     1  UNL1        0.0897
@<TRIPOS>BOND
     1    11    10    1
     2    11    12    1
     3    12    13   ar
     4    13    14   ar
     5    14    15   ar
     6    15    16    1
     7    15    17   ar
     8    17    18   ar
     9    11     1    1
    10     1     2   ar
    11     2    19    1
    12    19    20    1
    13    20    21    1
    14    21    22    1
    15    21    23    1
    16     2     3   ar
    17     3     4   ar
    18     4     5   ar
    19     5     6   ar
    20     6     7   ar
    21     7     8   ar
    22     8     9   ar
    23    18    12   ar
    24     9     1   ar
    25     9     4   ar
@<TRIPOS>MOLECULE
*****
 23 25 0 0 0
SMALL
GASTEIGER

@<TRIPOS>ATOM
      1 C         139.8980  142.1688  166.4060 C.ar    1  UNL1       -0.0144
      2 C         139.4885  140.8113  165.9167 C.ar    1  UNL1        0.0051
      3 S         139.4969  139.8745  167.0882 S.2     1  UNL1       -0.0915
      4 C         139.9115  140.6530  168.3014 C.ar    1  UNL1        0.0288
      5 C         140.0953  140.2540  169.7356 C.ar    1  UNL1        0.0065
      6 C         140.5271  141.2730  170.7482 C.ar    1  UNL1        0.0005
      7 C         140.7749  142.6910  170.3265 C.ar    1  UNL1        0.0000
      8 C         140.5911  143.0900  168.8923 C.ar    1  UNL1        0.0002
      9 C         140.1594  142.0711  167.8798 C.ar    1  UNL1        0.0025
     10 C         138.9255  144.4285  165.5703 C.3     1  UNL1        0.0110
     11 C         140.0239  143.4069  165.5685 C.3     1  UNL1        0.0627
     12 C         141.2480  143.6233  164.7292 C.ar    1  UNL1        0.0629
     13 C         142.5442  142.9719  165.1112 C.ar    1  UNL1        0.0174
     14 C         143.7684  143.1884  164.2720 C.ar    1  UNL1        0.0325
     15 C         143.6966  144.0563  163.0506 C.ar    1  UNL1        0.1592
     16 F         144.9208  144.2727  162.2114 F       1  UNL1       -0.2025
     17 C         142.4005  144.7077  162.6686 C.ar    1  UNL1        0.1280
     18 N         141.1763  144.4912  163.5079 N.ar    1  UNL1       -0.2455
     19 C         139.1331  140.4534  164.5041 C.3     1  UNL1        0.0499
     20 C         137.8489  140.9462  163.9059 C.3     1  UNL1        0.0774
     21 N         137.8286  141.4705  162.5007 N.3     1  UNL1       -0.2700
     22 C         137.9118  142.9471  162.2498 C.3     1  UNL1        0.0897
     23 C         137.7251  140.5182  161.3464 C.3     1  UNL1        0.0897
@<TRIPOS>BOND
     1    11    10    1
     2    11    12    1
     3    12    13   ar
     4    13    14   ar
     5    14    15   ar
     6    15    16    1
     7    15    17   ar
     8    17    18   ar
     9    11     1    1
    10     1     2   ar
    11     2    19    1
    12    19    20    1
    13    20    21    1
    14    21    22    1
    15    21    23    1
    16     2     3   ar
    17     3     4   ar
    18     4     5   ar
    19     5     6   ar
    20     6     7   ar
    21     7     8   ar
    22     8     9   ar
    23    18    12   ar
    24     9     1   ar
    25     9     4   ar
@<TRIPOS>MOLECULE
*****
 23 25 0 0 0
SMALL
GASTEIGER

@<TRIPOS>ATOM
      1 C         140.3071  140.4222  164.9844 C.ar    1  UNL1       -0.0144
      2 C         139.8562  141.3096  163.8623 C.ar    1  UNL1        0.0051
      3 S         141.0130  141.4968  162.9259 S.2     1  UNL1       -0.0915
      4 C         142.1789  140.7251  163.4693 C.ar    1  UNL1        0.0288
      5 C         143.5813  140.5414  162.9701 C.ar    1  UNL1        0.0065
      6 C         144.5475  139.6935  163.7430 C.ar    1  UNL1        0.0005
      7 C         144.1112  139.0293  165.0153 C.ar    1  UNL1        0.0000
      8 C         142.7088  139.2130  165.5145 C.ar    1  UNL1        0.0002
      9 C         141.7426  140.0609  164.7416 C.ar    1  UNL1        0.0025
     10 C         138.4147  138.9262  165.9494 C.3     1  UNL1        0.0110
     11 C         139.4696  139.9746  166.1455 C.3     1  UNL1        0.0627
     12 C         139.6869  140.5751  167.5027 C.ar    1  UNL1        0.0629
     13 C         140.3451  141.9168  167.6326 C.ar    1  UNL1        0.0174
     14 C         140.5624  142.5174  168.9898 C.ar    1  UNL1        0.0325
     15 C         140.1215  141.7763  170.2172 C.ar    1  UNL1        0.1592
     16 F         140.3388  142.3769  171.5744 F       1  UNL1       -0.2025
     17 C         139.4633  140.4347  170.0873 C.ar    1  UNL1        0.1280
     18 N         139.2460  139.8341  168.7301 N.ar    1  UNL1       -0.2455
     19 C         138.4887  141.9053  163.7043 C.3     1  UNL1        0.0499
     20 C         138.3065  143.1656  162.9116 C.3     1  UNL1        0.0774
     21 N         138.8534  144.4628  163.4294 N.3     1  UNL1       -0.2700
     22 C         138.8271  144.7540  164.9007 C.3     1  UNL1        0.0897
     23 C         139.4267  145.4689  162.4759 C.3     1  UNL1        0.0897
@<TRIPOS>BOND
     1    11    10    1
     2    11    12    1
     3    12    13   ar
     4    13    14   ar
     5    14    15   ar
     6    15    16    1
     7    15    17   ar
     8    17    18   ar
     9    11     1    1
    10     1     2   ar
    11     2    19    1
    12    19    20    1
    13    20    21    1
    14    21    22    1
    15    21    23    1
    16     2     3   ar
    17     3     4   ar
    18     4     5   ar
    19     5     6   ar
    20     6     7   ar
    21     7     8   ar
    22     8     9   ar
    23    18    12   ar
    24     9     1   ar
    25     9     4   ar
