@<TRIPOS>MOLECULE
*****
 43 48 0 0 0
SMALL
GASTEIGER

@<TRIPOS>ATOM
      1 C         137.8143  142.9358  162.8848 C.3     1  UNL1        0.0932
      2 C         137.6036  141.8048  163.8473 C.3     1  UNL1        0.0286
      3 C         137.6425  140.3872  163.3588 C.3     1  UNL1        0.0193
      4 C         137.8919  140.1004  161.9077 C.3     1  UNL1        0.0700
      5 C         138.1025  141.2315  160.9452 C.3     1  UNL1        0.0193
      6 C         138.0637  142.6492  161.4338 C.3     1  UNL1        0.0286
      7 C         137.8796  140.8936  162.1285 C.3     1  UNL1        0.1562
      8 O         137.8445  142.1755  162.5702 O.3     1  UNL1       -0.3572
      9 N         137.9307  138.6828  161.4192 N.3     1  UNL1       -0.2926
     10 H         137.3543  138.6451  160.5785 H       1  UNL1        0.1236
     11 C         139.2433  138.0444  161.0731 C.3     1  UNL1        0.1152
     12 C         140.4297  138.2347  161.9710 C.ar    1  UNL1        0.0765
     13 C         140.5662  137.4121  163.2179 C.ar    1  UNL1        0.0193
     14 C         141.7526  137.6024  164.1158 C.ar    1  UNL1        0.0411
     15 C         142.8025  138.6152  163.7668 C.ar    1  UNL1        0.1708
     16 C         142.6661  139.4378  162.5199 C.ar    1  UNL1        0.1682
     17 N         141.4796  139.2475  161.6220 N.ar    1  UNL1       -0.2304
     18 N         143.7160  140.4506  162.1709 N.am    1  UNL1       -0.2639
     19 C         144.9024  140.6409  163.0687 C.2     1  UNL1        0.2718
     20 O         145.9523  141.6537  162.7197 O.2     1  UNL1       -0.2707
     21 C         145.0389  139.8183  164.3157 C.3     1  UNL1        0.2898
     22 O         143.9890  138.8055  164.6647 O.3     1  UNL1       -0.4628
     23 H         143.6264  140.9905  161.3525 H       1  UNL1        0.1565
     24 C         137.7755  144.3535  163.3733 C.3     1  UNL1        0.0320
     25 C         138.8988  144.8893  164.2107 C.3     1  UNL1        0.0327
     26 C         141.1403  142.4627  167.2664 C.ar    1  UNL1        0.2254
     27 C         142.5508  142.0314  166.9937 C.ar    1  UNL1        0.0593
     28 C         143.2141  142.4089  165.7024 C.ar    1  UNL1        0.0254
     29 C         142.4670  143.2178  164.6839 C.ar    1  UNL1        0.0990
     30 N         143.1304  143.5953  163.3926 N.ar    1  UNL1       -0.2400
     31 C         142.3833  144.4042  162.3740 C.ar    1  UNL1        0.1281
     32 C         140.9727  144.8355  162.6467 C.ar    1  UNL1        0.1566
     33 F         140.2255  145.6443  161.6281 F       1  UNL1       -0.2028
     34 C         140.3093  144.4580  163.9380 C.ar    1  UNL1        0.0261
     35 C         141.0565  143.6491  164.9566 C.ar    1  UNL1        0.1002
     36 N         140.3931  143.2715  166.2479 N.ar    1  UNL1       -0.2104
     37 O         140.4769  142.0852  168.5577 O.3     1  UNL1       -0.4479
     38 C         140.2844  140.6393  168.9073 C.3     1  UNL1        0.3154
     39 C         138.9196  140.1290  169.2637 C.2     1  UNL1        0.3621
     40 O         138.2129  140.6607  170.4752 O.2     1  UNL1       -0.2459
     41 O         138.2616  139.0871  168.4084 O.3     1  UNL1       -0.4459
     42 C         138.1361  137.8939  166.1040 C.3     1  UNL1        0.0513
     43 C         138.4433  139.1146  166.9197 C.3     1  UNL1        0.2087
@<TRIPOS>BOND
     1    42    43    1
     2    43    41    1
     3    41    39    1
     4    39    40    2
     5    39    38    1
     6    38    37    1
     7    37    26    1
     8    26    27   ar
     9    27    28   ar
    10    28    29   ar
    11    29    30   ar
    12    30    31   ar
    13    31    32   ar
    14    32    33    1
    15    32    34   ar
    16    34    25    1
    17    25    24    1
    18    24     1    1
    19     1     2    1
    20     2     3    1
    21     3     4    1
    22     4     9    1
    23     9    11    1
    24    11    12    1
    25    12    13   ar
    26    13    14   ar
    27    14    15   ar
    28    15    16   ar
    29    16    17   ar
    30    16    18    1
    31    18    19   am
    32    19    20    2
    33    19    21    1
    34    21    22    1
    35     4     5    1
    36     5     6    1
    37     4     7    1
    38     7     8    1
    39    34    35   ar
    40    35    36   ar
    41    36    26   ar
    42    35    29   ar
    43     6     1    1
    44     8     1    1
    45    17    12   ar
    46    22    15    1
    47     9    10    1
    48    18    23    1
@<TRIPOS>MOLECULE
*****
 43 48 0 0 0
SMALL
GASTEIGER

@<TRIPOS>ATOM
      1 C         137.7848  143.0411  163.1528 C.3     1  UNL1        0.0932
      2 C         137.5789  141.8007  163.9707 C.3     1  UNL1        0.0286
      3 C         137.6335  140.4526  163.3154 C.3     1  UNL1        0.0193
      4 C         137.8941  140.3448  161.8420 C.3     1  UNL1        0.0700
      5 C         138.1000  141.5852  161.0241 C.3     1  UNL1        0.0193
      6 C         138.0453  142.9334  161.6796 C.3     1  UNL1        0.0286
      7 C         137.8732  141.1054  162.1566 C.3     1  UNL1        0.1562
      8 O         137.8238  142.3245  162.7492 O.3     1  UNL1       -0.3572
      9 N         137.9487  138.9967  161.1867 N.3     1  UNL1       -0.2926
     10 H         137.3897  139.0600  160.3358 H       1  UNL1        0.1236
     11 C         139.2707  138.4069  160.7934 C.3     1  UNL1        0.1152
     12 C         140.4349  138.4804  161.7363 C.ar    1  UNL1        0.0765
     13 C         140.5101  137.5485  162.9093 C.ar    1  UNL1        0.0193
     14 C         141.6744  137.6219  163.8521 C.ar    1  UNL1        0.0411
     15 C         142.7636  138.6273  163.6220 C.ar    1  UNL1        0.1708
     16 C         142.6885  139.5592  162.4491 C.ar    1  UNL1        0.1682
     17 N         141.5241  139.4858  161.5061 N.ar    1  UNL1       -0.2304
     18 N         143.7776  140.5645  162.2189 N.am    1  UNL1       -0.2639
     19 C         144.9419  140.6380  163.1618 C.2     1  UNL1        0.2718
     20 O         146.0311  141.6433  162.9317 O.2     1  UNL1       -0.2707
     21 C         145.0171  139.7060  164.3348 C.3     1  UNL1        0.2898
     22 O         143.9279  138.7007  164.5649 O.3     1  UNL1       -0.4628
     23 H         143.7283  141.1762  161.4491 H       1  UNL1        0.1565
     24 C         137.7302  144.3892  163.8082 C.3     1  UNL1        0.0320
     25 C         138.8514  144.8362  164.6988 C.3     1  UNL1        0.0327
     26 C         140.9351  141.7574  167.2343 C.ar    1  UNL1        0.2254
     27 C         142.3467  141.3584  166.9208 C.ar    1  UNL1        0.0593
     28 C         143.0637  141.9857  165.7622 C.ar    1  UNL1        0.0254
     29 C         142.3691  143.0120  164.9170 C.ar    1  UNL1        0.0990
     30 N         143.0861  143.6392  163.7584 N.ar    1  UNL1       -0.2400
     31 C         142.3915  144.6655  162.9132 C.ar    1  UNL1        0.1281
     32 C         140.9799  145.0645  163.2267 C.ar    1  UNL1        0.1566
     33 F         140.2853  146.0908  162.3815 F       1  UNL1       -0.2028
     34 C         140.2629  144.4372  164.3853 C.ar    1  UNL1        0.0261
     35 C         140.9576  143.4109  165.2305 C.ar    1  UNL1        0.1002
     36 N         140.2406  142.7837  166.3892 N.ar    1  UNL1       -0.2104
     37 O         140.2182  141.1301  168.3930 O.3     1  UNL1       -0.4479
     38 C         139.7773  141.9772  169.5497 C.3     1  UNL1        0.3154
     39 C         140.7170  142.2384  170.6893 C.2     1  UNL1        0.3621
     40 O         140.7625  141.2956  171.8550 O.2     1  UNL1       -0.2459
     41 O         141.6114  143.4424  170.6631 O.3     1  UNL1       -0.4459
     42 C         143.7149  142.1191  169.9054 C.3     1  UNL1        0.0513
     43 C         143.1013  143.2696  170.6468 C.3     1  UNL1        0.2087
@<TRIPOS>BOND
     1    42    43    1
     2    43    41    1
     3    41    39    1
     4    39    40    2
     5    39    38    1
     6    38    37    1
     7    37    26    1
     8    26    27   ar
     9    27    28   ar
    10    28    29   ar
    11    29    30   ar
    12    30    31   ar
    13    31    32   ar
    14    32    33    1
    15    32    34   ar
    16    34    25    1
    17    25    24    1
    18    24     1    1
    19     1     2    1
    20     2     3    1
    21     3     4    1
    22     4     9    1
    23     9    11    1
    24    11    12    1
    25    12    13   ar
    26    13    14   ar
    27    14    15   ar
    28    15    16   ar
    29    16    17   ar
    30    16    18    1
    31    18    19   am
    32    19    20    2
    33    19    21    1
    34    21    22    1
    35     4     5    1
    36     5     6    1
    37     4     7    1
    38     7     8    1
    39    34    35   ar
    40    35    36   ar
    41    36    26   ar
    42    35    29   ar
    43     6     1    1
    44     8     1    1
    45    17    12   ar
    46    22    15    1
    47     9    10    1
    48    18    23    1
@<TRIPOS>MOLECULE
*****
 43 48 0 0 0
SMALL
GASTEIGER

@<TRIPOS>ATOM
      1 C         141.9692  138.0153  164.2001 C.3     1  UNL1        0.0932
      2 C         142.9145  138.5401  165.2399 C.3     1  UNL1        0.0286
      3 C         144.0996  139.3629  164.8292 C.3     1  UNL1        0.0193
      4 C         144.3395  139.6608  163.3788 C.3     1  UNL1        0.0700
      5 C         143.3942  139.1359  162.3390 C.3     1  UNL1        0.0193
      6 C         142.2091  138.3132  162.7497 C.3     1  UNL1        0.0286
      7 C         143.6765  139.2056  163.5554 C.3     1  UNL1        0.1562
      8 O         142.6049  138.4617  163.9267 O.3     1  UNL1       -0.3572
      9 N         145.5246  140.4835  162.9681 N.3     1  UNL1       -0.2926
     10 H         145.5574  140.4642  161.9488 H       1  UNL1        0.1236
     11 C         145.6157  141.9237  163.3771 C.3     1  UNL1        0.1152
     12 C         144.4208  142.8198  163.2388 C.ar    1  UNL1        0.0765
     13 C         143.7805  143.4099  164.4603 C.ar    1  UNL1        0.0193
     14 C         142.5855  144.3060  164.3220 C.ar    1  UNL1        0.0411
     15 C         142.0308  144.6118  162.9623 C.ar    1  UNL1        0.1708
     16 C         142.6710  144.0217  161.7409 C.ar    1  UNL1        0.1682
     17 N         143.8660  143.1256  161.8792 N.ar    1  UNL1       -0.2304
     18 N         142.1163  144.3276  160.3813 N.am    1  UNL1       -0.2639
     19 C         140.9213  145.2236  160.2430 C.2     1  UNL1        0.2718
     20 O         140.3666  145.5295  158.8833 O.2     1  UNL1       -0.2707
     21 C         140.2810  145.8138  161.4644 C.3     1  UNL1        0.2898
     22 O         140.8357  145.5079  162.8241 O.3     1  UNL1       -0.4628
     23 H         142.5365  143.9403  159.5796 H       1  UNL1        0.1565
     24 C         140.7842  137.1926  164.6108 C.3     1  UNL1        0.0320
     25 C         139.5125  137.8674  165.0324 C.3     1  UNL1        0.0327
     26 C         140.2285  141.8977  166.9016 C.ar    1  UNL1        0.2254
     27 C         139.7713  143.1418  166.1995 C.ar    1  UNL1        0.0593
     28 C         139.0753  143.0426  164.8745 C.ar    1  UNL1        0.0254
     29 C         138.8366  141.6992  164.2514 C.ar    1  UNL1        0.0990
     30 N         138.1407  141.6000  162.9263 N.ar    1  UNL1       -0.2400
     31 C         137.9020  140.2566  162.3033 C.ar    1  UNL1        0.1281
     32 C         138.3593  139.0123  163.0053 C.ar    1  UNL1        0.1566
     33 F         138.1206  137.6689  162.3822 F       1  UNL1       -0.2028
     34 C         139.0552  139.1115  164.3304 C.ar    1  UNL1        0.0261
     35 C         139.2939  140.4550  164.9534 C.ar    1  UNL1        0.1002
     36 N         139.9899  140.5543  166.2785 N.ar    1  UNL1       -0.2104
     37 O         140.9245  141.9969  168.2266 O.3     1  UNL1       -0.4479
     38 C         140.1275  141.9621  169.4968 C.3     1  UNL1        0.3154
     39 C         140.3288  140.8459  170.4783 C.2     1  UNL1        0.3621
     40 O         139.2214  139.8688  170.7405 O.2     1  UNL1       -0.2459
     41 O         141.6378  140.7067  171.1977 O.3     1  UNL1       -0.4459
     42 C         142.6076  139.0358  169.4606 C.3     1  UNL1        0.0513
     43 C         142.8171  140.0987  170.4981 C.3     1  UNL1        0.2087
@<TRIPOS>BOND
     1    42    43    1
     2    43    41    1
     3    41    39    1
     4    39    40    2
     5    39    38    1
     6    38    37    1
     7    37    26    1
     8    26    27   ar
     9    27    28   ar
    10    28    29   ar
    11    29    30   ar
    12    30    31   ar
    13    31    32   ar
    14    32    33    1
    15    32    34   ar
    16    34    25    1
    17    25    24    1
    18    24     1    1
    19     1     2    1
    20     2     3    1
    21     3     4    1
    22     4     9    1
    23     9    11    1
    24    11    12    1
    25    12    13   ar
    26    13    14   ar
    27    14    15   ar
    28    15    16   ar
    29    16    17   ar
    30    16    18    1
    31    18    19   am
    32    19    20    2
    33    19    21    1
    34    21    22    1
    35     4     5    1
    36     5     6    1
    37     4     7    1
    38     7     8    1
    39    34    35   ar
    40    35    36   ar
    41    36    26   ar
    42    35    29   ar
    43     6     1    1
    44     8     1    1
    45    17    12   ar
    46    22    15    1
    47     9    10    1
    48    18    23    1
@<TRIPOS>MOLECULE
*****
 43 48 0 0 0
SMALL
GASTEIGER

@<TRIPOS>ATOM
      1 C         139.6114  138.1024  164.3605 C.3     1  UNL1        0.0932
      2 C         139.1388  139.1325  165.3433 C.3     1  UNL1        0.0286
      3 C         138.2075  140.2212  164.8992 C.3     1  UNL1        0.0193
      4 C         137.7486  140.2799  163.4723 C.3     1  UNL1        0.0700
      5 C         138.2211  139.2499  162.4895 C.3     1  UNL1        0.0193
      6 C         139.1525  138.1611  162.9337 C.3     1  UNL1        0.0286
      7 C         138.2592  139.6645  163.6688 C.3     1  UNL1        0.1562
      8 O         139.1013  138.6801  164.0704 O.3     1  UNL1       -0.3572
      9 N         136.8173  141.3686  163.0282 N.3     1  UNL1       -0.2926
     10 H         136.3652  141.7302  163.8680 H       1  UNL1        0.1236
     11 C         137.3515  142.5536  162.2796 C.3     1  UNL1        0.1152
     12 C         138.5767  143.2633  162.7747 C.ar    1  UNL1        0.0765
     13 C         138.4791  144.2060  163.9374 C.ar    1  UNL1        0.0193
     14 C         139.7043  144.9157  164.4324 C.ar    1  UNL1        0.0411
     15 C         141.0272  144.6828  163.7648 C.ar    1  UNL1        0.1708
     16 C         141.1248  143.7402  162.6021 C.ar    1  UNL1        0.1682
     17 N         139.8996  143.0304  162.1070 N.ar    1  UNL1       -0.2304
     18 N         142.4477  143.5073  161.9345 N.am    1  UNL1       -0.2639
     19 C         143.6729  144.2170  162.4296 C.2     1  UNL1        0.2718
     20 O         144.9958  143.9841  161.7619 O.2     1  UNL1       -0.2707
     21 C         143.5753  145.1597  163.5923 C.3     1  UNL1        0.2898
     22 O         142.2524  145.3926  164.2599 O.3     1  UNL1       -0.4628
     23 H         142.5118  142.8886  161.1714 H       1  UNL1        0.1565
     24 C         140.5427  137.0137  164.8046 C.3     1  UNL1        0.0320
     25 C         142.0229  137.2560  164.8277 C.3     1  UNL1        0.0327
     26 C         142.6048  140.7050  167.6589 C.ar    1  UNL1        0.2254
     27 C         143.1601  142.0039  167.1545 C.ar    1  UNL1        0.0593
     28 C         143.5214  142.1531  165.7063 C.ar    1  UNL1        0.0254
     29 C         143.3275  141.0035  164.7626 C.ar    1  UNL1        0.0990
     30 N         143.6889  141.1528  163.3145 N.ar    1  UNL1       -0.2400
     31 C         143.4949  140.0031  162.3707 C.ar    1  UNL1        0.1281
     32 C         142.9396  138.7042  162.8751 C.ar    1  UNL1        0.1566
     33 F         142.7456  137.5545  161.9314 F       1  UNL1       -0.2028
     34 C         142.5782  138.5549  164.3233 C.ar    1  UNL1        0.0261
     35 C         142.7722  139.7046  165.2670 C.ar    1  UNL1        0.1002
     36 N         142.4108  139.5554  166.7152 N.ar    1  UNL1       -0.2104
     37 O         142.2434  140.5558  169.1071 O.3     1  UNL1       -0.4479
     38 C         143.0351  141.2788  170.1560 C.3     1  UNL1        0.3154
     39 C         142.4738  142.5099  170.8036 C.2     1  UNL1        0.3621
     40 O         143.3242  143.7375  170.9440 O.2     1  UNL1       -0.2459
     41 O         141.0621  142.5133  171.3107 O.3     1  UNL1       -0.4459
     42 C         140.2490  143.4862  169.0431 C.3     1  UNL1        0.0513
     43 C         139.9470  142.9786  170.4219 C.3     1  UNL1        0.2087
@<TRIPOS>BOND
     1    42    43    1
     2    43    41    1
     3    41    39    1
     4    39    40    2
     5    39    38    1
     6    38    37    1
     7    37    26    1
     8    26    27   ar
     9    27    28   ar
    10    28    29   ar
    11    29    30   ar
    12    30    31   ar
    13    31    32   ar
    14    32    33    1
    15    32    34   ar
    16    34    25    1
    17    25    24    1
    18    24     1    1
    19     1     2    1
    20     2     3    1
    21     3     4    1
    22     4     9    1
    23     9    11    1
    24    11    12    1
    25    12    13   ar
    26    13    14   ar
    27    14    15   ar
    28    15    16   ar
    29    16    17   ar
    30    16    18    1
    31    18    19   am
    32    19    20    2
    33    19    21    1
    34    21    22    1
    35     4     5    1
    36     5     6    1
    37     4     7    1
    38     7     8    1
    39    34    35   ar
    40    35    36   ar
    41    36    26   ar
    42    35    29   ar
    43     6     1    1
    44     8     1    1
    45    17    12   ar
    46    22    15    1
    47     9    10    1
    48    18    23    1
@<TRIPOS>MOLECULE
*****
 43 48 0 0 0
SMALL
GASTEIGER

@<TRIPOS>ATOM
      1 C         140.1101  143.8344  164.3346 C.3     1  UNL1        0.0932
      2 C         140.5330  143.0335  165.5304 C.3     1  UNL1        0.0286
      3 C         141.9898  142.7945  165.7959 C.3     1  UNL1        0.0193
      4 C         143.0238  143.3563  164.8657 C.3     1  UNL1        0.0700
      5 C         142.6009  144.1571  163.6699 C.3     1  UNL1        0.0193
      6 C         141.1440  144.3961  163.4044 C.3     1  UNL1        0.0286
      7 C         142.2375  143.5137  164.6789 C.3     1  UNL1        0.1562
      8 O         140.9202  143.7299  164.4388 O.3     1  UNL1       -0.3572
      9 N         144.4806  143.1172  165.1312 N.3     1  UNL1       -0.2926
     10 H         144.5429  142.6601  166.0409 H       1  UNL1        0.1236
     11 C         145.2917  142.2930  164.1759 C.3     1  UNL1        0.1152
     12 C         144.6704  141.1136  163.4883 C.ar    1  UNL1        0.0765
     13 C         144.1186  139.9781  164.2984 C.ar    1  UNL1        0.0193
     14 C         143.4973  138.7987  163.6108 C.ar    1  UNL1        0.0411
     15 C         143.4276  138.7547  162.1131 C.ar    1  UNL1        0.1708
     16 C         143.9793  139.8901  161.3029 C.ar    1  UNL1        0.1682
     17 N         144.6007  141.0696  161.9905 N.ar    1  UNL1       -0.2304
     18 N         143.9097  139.8462  159.8052 N.am    1  UNL1       -0.2639
     19 C         143.2883  138.6667  159.1176 C.2     1  UNL1        0.2718
     20 O         143.2187  138.6228  157.6198 O.2     1  UNL1       -0.2707
     21 C         142.7366  137.5312  159.9277 C.3     1  UNL1        0.2898
     22 O         142.8062  137.5752  161.4254 O.3     1  UNL1       -0.4628
     23 H         144.2718  140.5914  159.2735 H       1  UNL1        0.1565
     24 C         138.6533  144.0734  164.0691 C.3     1  UNL1        0.0320
     25 C         137.6867  142.9269  164.1034 C.3     1  UNL1        0.0327
     26 C         138.5371  139.0718  166.2633 C.ar    1  UNL1        0.2254
     27 C         138.8263  137.8234  165.4837 C.ar    1  UNL1        0.0593
     28 C         138.8321  137.8600  163.9842 C.ar    1  UNL1        0.0254
     29 C         138.5486  139.1450  163.2642 C.ar    1  UNL1        0.0990
     30 N         138.5543  139.1815  161.7647 N.ar    1  UNL1       -0.2400
     31 C         138.2708  140.4665  161.0447 C.ar    1  UNL1        0.1281
     32 C         137.9816  141.7150  161.8243 C.ar    1  UNL1        0.1566
     33 F         137.6981  143.0000  161.1043 F       1  UNL1       -0.2028
     34 C         137.9759  141.6784  163.3238 C.ar    1  UNL1        0.0261
     35 C         138.2594  140.3934  164.0438 C.ar    1  UNL1        0.1002
     36 N         138.2536  140.3568  165.5433 N.ar    1  UNL1       -0.2104
     37 O         138.5314  139.0352  167.7628 O.3     1  UNL1       -0.4479
     38 C         139.3957  139.9837  168.5395 C.3     1  UNL1        0.3154
     39 C         139.0226  140.3609  169.9425 C.2     1  UNL1        0.3621
     40 O         137.7685  139.8146  170.5578 O.2     1  UNL1       -0.2459
     41 O         139.9038  141.2845  170.7304 O.3     1  UNL1       -0.4459
     42 C         140.4162  143.4380  169.3703 C.3     1  UNL1        0.0513
     43 C         139.7824  142.7691  170.5538 C.3     1  UNL1        0.2087
@<TRIPOS>BOND
     1    42    43    1
     2    43    41    1
     3    41    39    1
     4    39    40    2
     5    39    38    1
     6    38    37    1
     7    37    26    1
     8    26    27   ar
     9    27    28   ar
    10    28    29   ar
    11    29    30   ar
    12    30    31   ar
    13    31    32   ar
    14    32    33    1
    15    32    34   ar
    16    34    25    1
    17    25    24    1
    18    24     1    1
    19     1     2    1
    20     2     3    1
    21     3     4    1
    22     4     9    1
    23     9    11    1
    24    11    12    1
    25    12    13   ar
    26    13    14   ar
    27    14    15   ar
    28    15    16   ar
    29    16    17   ar
    30    16    18    1
    31    18    19   am
    32    19    20    2
    33    19    21    1
    34    21    22    1
    35     4     5    1
    36     5     6    1
    37     4     7    1
    38     7     8    1
    39    34    35   ar
    40    35    36   ar
    41    36    26   ar
    42    35    29   ar
    43     6     1    1
    44     8     1    1
    45    17    12   ar
    46    22    15    1
    47     9    10    1
    48    18    23    1
@<TRIPOS>MOLECULE
*****
 43 48 0 0 0
SMALL
GASTEIGER

@<TRIPOS>ATOM
      1 C         144.1025  142.1777  163.4462 C.3     1  UNL1        0.0932
      2 C         143.5504  142.9296  164.6209 C.3     1  UNL1        0.0286
      3 C         142.6426  144.1032  164.4008 C.3     1  UNL1        0.0193
      4 C         142.2869  144.5250  163.0059 C.3     1  UNL1        0.0700
      5 C         142.8390  143.7732  161.8312 C.3     1  UNL1        0.0193
      6 C         143.7468  142.5995  162.0514 C.3     1  UNL1        0.0286
      7 C         142.7881  143.8756  163.0766 C.3     1  UNL1        0.1562
      8 O         143.6089  142.8144  163.2757 O.3     1  UNL1       -0.3572
      9 N         141.3791  145.6987  162.7858 N.3     1  UNL1       -0.2926
     10 H         141.5636  146.0407  161.8427 H       1  UNL1        0.1236
     11 C         139.8932  145.5297  162.9022 C.3     1  UNL1        0.1152
     12 C         139.2640  144.2007  162.6063 C.ar    1  UNL1        0.0765
     13 C         138.6498  143.3981  163.7148 C.ar    1  UNL1        0.0193
     14 C         138.0206  142.0691  163.4188 C.ar    1  UNL1        0.0411
     15 C         138.0055  141.5425  162.0144 C.ar    1  UNL1        0.1708
     16 C         138.6196  142.3450  160.9059 C.ar    1  UNL1        0.1682
     17 N         139.2489  143.6741  161.2018 N.ar    1  UNL1       -0.2304
     18 N         138.6046  141.8184  159.5014 N.am    1  UNL1       -0.2639
     19 C         137.9753  140.4893  159.2055 C.2     1  UNL1        0.2718
     20 O         137.9602  139.9628  157.8010 O.2     1  UNL1       -0.2707
     21 C         137.3611  139.6868  160.3140 C.3     1  UNL1        0.2898
     22 O         137.3762  140.2134  161.7185 O.3     1  UNL1       -0.4628
     23 H         139.0077  142.3451  158.7739 H       1  UNL1        0.1565
     24 C         145.0103  141.0041  163.6664 C.3     1  UNL1        0.0320
     25 C         144.4377  139.6794  164.0758 C.3     1  UNL1        0.0327
     26 C         140.5625  139.7267  166.3627 C.ar    1  UNL1        0.2254
     27 C         139.3054  139.2217  165.7188 C.ar    1  UNL1        0.0593
     28 C         139.3401  138.7010  164.3125 C.ar    1  UNL1        0.0254
     29 C         140.6318  138.6852  163.5502 C.ar    1  UNL1        0.0990
     30 N         140.6665  138.1644  162.1439 N.ar    1  UNL1       -0.2400
     31 C         141.9582  138.1487  161.3816 C.ar    1  UNL1        0.1281
     32 C         143.2153  138.6537  162.0255 C.ar    1  UNL1        0.1566
     33 F         144.5071  138.6379  161.2632 F       1  UNL1       -0.2028
     34 C         143.1807  139.1744  163.4318 C.ar    1  UNL1        0.0261
     35 C         141.8889  139.1902  164.1941 C.ar    1  UNL1        0.1002
     36 N         141.8542  139.7109  165.6004 N.ar    1  UNL1       -0.2104
     37 O         140.5279  140.2475  167.7690 O.3     1  UNL1       -0.4479
     38 C         139.3020  140.0523  168.6111 C.3     1  UNL1        0.3154
     39 C         139.3278  140.4100  170.0675 C.2     1  UNL1        0.3621
     40 O         139.3827  139.3279  171.1048 O.2     1  UNL1       -0.2459
     41 O         139.2986  141.8500  170.4868 O.3     1  UNL1       -0.4459
     42 C         140.4312  144.0885  169.8112 C.3     1  UNL1        0.0513
     43 C         140.5314  142.6944  170.3556 C.3     1  UNL1        0.2087
@<TRIPOS>BOND
     1    42    43    1
     2    43    41    1
     3    41    39    1
     4    39    40    2
     5    39    38    1
     6    38    37    1
     7    37    26    1
     8    26    27   ar
     9    27    28   ar
    10    28    29   ar
    11    29    30   ar
    12    30    31   ar
    13    31    32   ar
    14    32    33    1
    15    32    34   ar
    16    34    25    1
    17    25    24    1
    18    24     1    1
    19     1     2    1
    20     2     3    1
    21     3     4    1
    22     4     9    1
    23     9    11    1
    24    11    12    1
    25    12    13   ar
    26    13    14   ar
    27    14    15   ar
    28    15    16   ar
    29    16    17   ar
    30    16    18    1
    31    18    19   am
    32    19    20    2
    33    19    21    1
    34    21    22    1
    35     4     5    1
    36     5     6    1
    37     4     7    1
    38     7     8    1
    39    34    35   ar
    40    35    36   ar
    41    36    26   ar
    42    35    29   ar
    43     6     1    1
    44     8     1    1
    45    17    12   ar
    46    22    15    1
    47     9    10    1
    48    18    23    1
@<TRIPOS>MOLECULE
*****
 43 48 0 0 0
SMALL
GASTEIGER

@<TRIPOS>ATOM
      1 C         139.4336  142.8634  164.0158 C.3     1  UNL1        0.0932
      2 C         139.6723  143.0863  162.5518 C.3     1  UNL1        0.0286
      3 C         140.9139  143.7921  162.0933 C.3     1  UNL1        0.0193
      4 C         141.9168  144.2750  163.0988 C.3     1  UNL1        0.0700
      5 C         141.6781  144.0520  164.5628 C.3     1  UNL1        0.0193
      6 C         140.4364  143.3462  165.0213 C.3     1  UNL1        0.0286
      7 C         141.2514  143.8933  163.3979 C.3     1  UNL1        0.1562
      8 O         140.1287  143.2551  163.8126 O.3     1  UNL1       -0.3572
      9 N         143.1584  144.9808  162.6403 N.3     1  UNL1       -0.2926
     10 H         143.3816  145.6764  163.3521 H       1  UNL1        0.1236
     11 C         144.4146  144.2009  162.3879 C.3     1  UNL1        0.1152
     12 C         144.3630  142.7046  162.2969 C.ar    1  UNL1        0.0765
     13 C         144.8933  141.8660  163.4219 C.ar    1  UNL1        0.0193
     14 C         144.8417  140.3697  163.3308 C.ar    1  UNL1        0.0411
     15 C         144.2597  139.7119  162.1148 C.ar    1  UNL1        0.1708
     16 C         143.7294  140.5505  160.9899 C.ar    1  UNL1        0.1682
     17 N         143.7810  142.0469  161.0809 N.ar    1  UNL1       -0.2304
     18 N         143.1474  139.8927  159.7738 N.am    1  UNL1       -0.2639
     19 C         143.0958  138.3964  159.6828 C.2     1  UNL1        0.2718
     20 O         142.5138  137.7386  158.4668 O.2     1  UNL1       -0.2707
     21 C         143.6261  137.5578  160.8078 C.3     1  UNL1        0.2898
     22 O         144.2081  138.2155  162.0238 O.3     1  UNL1       -0.4628
     23 H         142.7994  140.4431  159.0355 H       1  UNL1        0.1565
     24 C         138.1920  142.1576  164.4743 C.3     1  UNL1        0.0320
     25 C         138.2908  140.8019  165.1089 C.3     1  UNL1        0.0327
     26 C         142.2146  139.8297  167.0859 C.ar    1  UNL1        0.2254
     27 C         143.1156  138.7877  166.4924 C.ar    1  UNL1        0.0593
     28 C         142.7086  138.0697  165.2398 C.ar    1  UNL1        0.0254
     29 C         141.4007  138.3937  164.5808 C.ar    1  UNL1        0.0990
     30 N         140.9938  137.6757  163.3283 N.ar    1  UNL1       -0.2400
     31 C         139.6859  137.9998  162.6693 C.ar    1  UNL1        0.1281
     32 C         138.7848  139.0419  163.2628 C.ar    1  UNL1        0.1566
     33 F         137.4770  139.3659  162.6038 F       1  UNL1       -0.2028
     34 C         139.1918  139.7599  164.5153 C.ar    1  UNL1        0.0261
     35 C         140.4998  139.4358  165.1744 C.ar    1  UNL1        0.1002
     36 N         140.9067  140.1538  166.4269 N.ar    1  UNL1       -0.2104
     37 O         142.6215  140.5477  168.3385 O.3     1  UNL1       -0.4479
     38 C         142.7788  142.0394  168.3304 C.3     1  UNL1        0.3154
     39 C         143.2263  142.7531  169.5716 C.2     1  UNL1        0.3621
     40 O         144.6749  142.7448  169.9605 O.2     1  UNL1       -0.2459
     41 O         142.2250  143.4751  170.4238 O.3     1  UNL1       -0.4459
     42 C         139.7128  142.8362  170.5983 C.3     1  UNL1        0.0513
     43 C         140.8097  143.6285  169.9511 C.3     1  UNL1        0.2087
@<TRIPOS>BOND
     1    42    43    1
     2    43    41    1
     3    41    39    1
     4    39    40    2
     5    39    38    1
     6    38    37    1
     7    37    26    1
     8    26    27   ar
     9    27    28   ar
    10    28    29   ar
    11    29    30   ar
    12    30    31   ar
    13    31    32   ar
    14    32    33    1
    15    32    34   ar
    16    34    25    1
    17    25    24    1
    18    24     1    1
    19     1     2    1
    20     2     3    1
    21     3     4    1
    22     4     9    1
    23     9    11    1
    24    11    12    1
    25    12    13   ar
    26    13    14   ar
    27    14    15   ar
    28    15    16   ar
    29    16    17   ar
    30    16    18    1
    31    18    19   am
    32    19    20    2
    33    19    21    1
    34    21    22    1
    35     4     5    1
    36     5     6    1
    37     4     7    1
    38     7     8    1
    39    34    35   ar
    40    35    36   ar
    41    36    26   ar
    42    35    29   ar
    43     6     1    1
    44     8     1    1
    45    17    12   ar
    46    22    15    1
    47     9    10    1
    48    18    23    1
@<TRIPOS>MOLECULE
*****
 43 48 0 0 0
SMALL
GASTEIGER

@<TRIPOS>ATOM
      1 C         140.6802  144.9574  162.6919 C.3     1  UNL1        0.0932
      2 C         141.7057  145.1330  163.7724 C.3     1  UNL1        0.0286
      3 C         143.1221  144.6972  163.5401 C.3     1  UNL1        0.0193
      4 C         143.5130  144.0858  162.2272 C.3     1  UNL1        0.0700
      5 C         142.4874  143.9102  161.1468 C.3     1  UNL1        0.0193
      6 C         141.0710  144.3461  161.3791 C.3     1  UNL1        0.0286
      7 C         142.7246  144.3093  162.3081 C.3     1  UNL1        0.1562
      8 O         141.4439  144.7034  162.5181 O.3     1  UNL1       -0.3572
      9 N         144.9293  143.6500  161.9949 N.3     1  UNL1       -0.2926
     10 H         145.4617  143.9273  162.8196 H       1  UNL1        0.1236
     11 C         145.2377  142.2032  161.7467 C.3     1  UNL1        0.1152
     12 C         144.5566  141.1413  162.5580 C.ar    1  UNL1        0.0765
     13 C         145.1342  140.7185  163.8763 C.ar    1  UNL1        0.0193
     14 C         144.4530  139.6566  164.6876 C.ar    1  UNL1        0.0411
     15 C         143.1943  139.0173  164.1807 C.ar    1  UNL1        0.1708
     16 C         142.6167  139.4400  162.8625 C.ar    1  UNL1        0.1682
     17 N         143.2979  140.5020  162.0511 N.ar    1  UNL1       -0.2304
     18 N         141.3580  138.8007  162.3556 N.am    1  UNL1       -0.2639
     19 C         140.6768  137.7388  163.1669 C.2     1  UNL1        0.2718
     20 O         139.4181  137.0995  162.6600 O.2     1  UNL1       -0.2707
     21 C         141.2544  137.3160  164.4852 C.3     1  UNL1        0.2898
     22 O         142.5131  137.9553  164.9921 O.3     1  UNL1       -0.4628
     23 H         140.9789  139.0782  161.4904 H       1  UNL1        0.1565
     24 C         139.2639  145.3932  162.9242 C.3     1  UNL1        0.0320
     25 C         138.3712  144.5931  163.8260 C.3     1  UNL1        0.0327
     26 C         140.2079  142.6732  167.4579 C.ar    1  UNL1        0.2254
     27 C         140.3528  141.1818  167.5255 C.ar    1  UNL1        0.0593
     28 C         139.8854  140.3303  166.3825 C.ar    1  UNL1        0.0254
     29 C         139.2732  140.9702  165.1718 C.ar    1  UNL1        0.0990
     30 N         138.8059  140.1187  164.0288 N.ar    1  UNL1       -0.2400
     31 C         138.1937  140.7586  162.8182 C.ar    1  UNL1        0.1281
     32 C         138.0488  142.2501  162.7505 C.ar    1  UNL1        0.1566
     33 F         137.4366  142.8900  161.5399 F       1  UNL1       -0.2028
     34 C         138.5161  143.1016  163.8936 C.ar    1  UNL1        0.0261
     35 C         139.1283  142.4616  165.1042 C.ar    1  UNL1        0.1002
     36 N         139.5957  143.3131  166.2473 N.ar    1  UNL1       -0.2104
     37 O         140.6752  143.5248  168.6009 O.3     1  UNL1       -0.4479
     38 C         141.0730  142.8859  169.8984 C.3     1  UNL1        0.3154
     39 C         142.5244  142.7112  170.2345 C.2     1  UNL1        0.3621
     40 O         143.2513  143.7786  170.9976 O.2     1  UNL1       -0.2459
     41 O         143.2488  141.4690  169.8075 O.3     1  UNL1       -0.4459
     42 C         142.3294  139.0407  169.8958 C.3     1  UNL1        0.0513
     43 C         143.0407  140.1851  170.5547 C.3     1  UNL1        0.2087
@<TRIPOS>BOND
     1    42    43    1
     2    43    41    1
     3    41    39    1
     4    39    40    2
     5    39    38    1
     6    38    37    1
     7    37    26    1
     8    26    27   ar
     9    27    28   ar
    10    28    29   ar
    11    29    30   ar
    12    30    31   ar
    13    31    32   ar
    14    32    33    1
    15    32    34   ar
    16    34    25    1
    17    25    24    1
    18    24     1    1
    19     1     2    1
    20     2     3    1
    21     3     4    1
    22     4     9    1
    23     9    11    1
    24    11    12    1
    25    12    13   ar
    26    13    14   ar
    27    14    15   ar
    28    15    16   ar
    29    16    17   ar
    30    16    18    1
    31    18    19   am
    32    19    20    2
    33    19    21    1
    34    21    22    1
    35     4     5    1
    36     5     6    1
    37     4     7    1
    38     7     8    1
    39    34    35   ar
    40    35    36   ar
    41    36    26   ar
    42    35    29   ar
    43     6     1    1
    44     8     1    1
    45    17    12   ar
    46    22    15    1
    47     9    10    1
    48    18    23    1
@<TRIPOS>MOLECULE
*****
 43 48 0 0 0
SMALL
GASTEIGER

@<TRIPOS>ATOM
      1 C         137.7882  142.7194  163.6464 C.3     1  UNL1        0.0932
      2 C         137.7471  142.5444  162.1572 C.3     1  UNL1        0.0286
      3 C         137.8253  141.1702  161.5611 C.3     1  UNL1        0.0193
      4 C         137.9447  139.9709  162.4541 C.3     1  UNL1        0.0700
      5 C         137.9859  140.1459  163.9433 C.3     1  UNL1        0.0193
      6 C         137.9076  141.5202  164.5395 C.3     1  UNL1        0.0286
      7 C         137.9050  140.7040  162.8270 C.3     1  UNL1        0.1562
      8 O         137.8342  141.9466  163.3661 O.3     1  UNL1       -0.3572
      9 N         138.0230  138.5967  161.8580 N.3     1  UNL1       -0.2926
     10 H         137.2726  138.5309  161.1703 H       1  UNL1        0.1236
     11 C         139.2792  138.1469  161.1727 C.3     1  UNL1        0.1152
     12 C         140.6143  138.4186  161.7999 C.ar    1  UNL1        0.0765
     13 C         141.7143  139.0331  160.9860 C.ar    1  UNL1        0.0193
     14 C         143.0494  139.3048  161.6133 C.ar    1  UNL1        0.0411
     15 C         143.2847  138.9620  163.0545 C.ar    1  UNL1        0.1708
     16 C         142.1847  138.3476  163.8685 C.ar    1  UNL1        0.1682
     17 N         140.8495  138.0759  163.2412 N.ar    1  UNL1       -0.2304
     18 N         142.4199  138.0049  165.3097 N.am    1  UNL1       -0.2639
     19 C         143.7551  138.2766  165.9370 C.2     1  UNL1        0.2718
     20 O         143.9903  137.9339  167.3783 O.2     1  UNL1       -0.2707
     21 C         144.8551  138.8911  165.1231 C.3     1  UNL1        0.2898
     22 O         144.6199  139.2338  163.6818 O.3     1  UNL1       -0.4628
     23 H         141.6980  137.6016  165.8440 H       1  UNL1        0.1565
     24 C         137.7100  144.0936  164.2425 C.3     1  UNL1        0.0320
     25 C         138.9677  144.8291  164.5993 C.3     1  UNL1        0.0327
     26 C         142.0317  142.2613  166.6652 C.ar    1  UNL1        0.2254
     27 C         143.3191  141.9257  165.9723 C.ar    1  UNL1        0.0593
     28 C         143.5851  142.4460  164.5908 C.ar    1  UNL1        0.0254
     29 C         142.5638  143.3019  163.9022 C.ar    1  UNL1        0.0990
     30 N         142.8298  143.8223  162.5207 N.ar    1  UNL1       -0.2400
     31 C         141.8084  144.6782  161.8321 C.ar    1  UNL1        0.1281
     32 C         140.5210  145.0139  162.5250 C.ar    1  UNL1        0.1566
     33 F         139.4997  145.8698  161.8364 F       1  UNL1       -0.2028
     34 C         140.2550  144.4935  163.9065 C.ar    1  UNL1        0.0261
     35 C         141.2764  143.6375  164.5951 C.ar    1  UNL1        0.1002
     36 N         141.0104  143.1172  165.9766 N.ar    1  UNL1       -0.2104
     37 O         141.7657  141.7409  168.0466 O.3     1  UNL1       -0.4479
     38 C         142.8411  141.0071  168.7916 C.3     1  UNL1        0.3154
     39 C         142.4733  139.9654  169.8064 C.2     1  UNL1        0.3621
     40 O         143.4920  139.4960  170.8023 O.2     1  UNL1       -0.2459
     41 O         141.0869  139.3930  169.8250 O.3     1  UNL1       -0.4459
     42 C         139.3949  141.3371  170.1529 C.3     1  UNL1        0.0513
     43 C         140.0121  140.0573  170.6335 C.3     1  UNL1        0.2087
@<TRIPOS>BOND
     1    42    43    1
     2    43    41    1
     3    41    39    1
     4    39    40    2
     5    39    38    1
     6    38    37    1
     7    37    26    1
     8    26    27   ar
     9    27    28   ar
    10    28    29   ar
    11    29    30   ar
    12    30    31   ar
    13    31    32   ar
    14    32    33    1
    15    32    34   ar
    16    34    25    1
    17    25    24    1
    18    24     1    1
    19     1     2    1
    20     2     3    1
    21     3     4    1
    22     4     9    1
    23     9    11    1
    24    11    12    1
    25    12    13   ar
    26    13    14   ar
    27    14    15   ar
    28    15    16   ar
    29    16    17   ar
    30    16    18    1
    31    18    19   am
    32    19    20    2
    33    19    21    1
    34    21    22    1
    35     4     5    1
    36     5     6    1
    37     4     7    1
    38     7     8    1
    39    34    35   ar
    40    35    36   ar
    41    36    26   ar
    42    35    29   ar
    43     6     1    1
    44     8     1    1
    45    17    12   ar
    46    22    15    1
    47     9    10    1
    48    18    23    1
