@<TRIPOS>MOLECULE
*****
 33 36 0 0 0
SMALL
GASTEIGER

@<TRIPOS>ATOM
      1 N         140.3525  146.2632  162.4581 N.pl3   1  UNL1       -0.3287
      2 C         141.2679  145.1400  162.8457 C.ar    1  UNL1        0.1959
      3 N         142.4444  145.2405  163.7709 N.ar    1  UNL1       -0.2123
      4 C         143.0712  143.8816  163.8732 C.ar    1  UNL1        0.1184
      5 C         144.2584  143.3791  164.6398 C.ar    1  UNL1        0.0271
      6 C         144.6567  141.9361  164.5446 C.ar    1  UNL1        0.0594
      7 C         143.8676  140.9956  163.6826 C.ar    1  UNL1        0.2262
      8 N         142.6803  141.4981  162.9160 N.ar    1  UNL1       -0.1926
      9 C         142.2821  142.9411  163.0113 C.ar    1  UNL1        0.1668
     10 N         141.1677  143.7189  162.3763 N.ar    1  UNL1       -0.2824
     11 H         140.5006  147.1664  162.8208 H       1  UNL1        0.1451
     12 H         139.6036  146.0973  161.8410 H       1  UNL1        0.1451
     13 O         144.2659  139.5525  163.5874 O.3     1  UNL1       -0.4611
     14 C         143.4400  138.5985  162.7765 C.3     1  UNL1        0.1988
     15 C         142.1078  137.9326  162.9548 C.3     1  UNL1        0.1143
     16 N         142.2719  137.2493  161.6296 N.3     1  UNL1       -0.2914
     17 C         143.6041  137.9152  161.4513 C.3     1  UNL1        0.1143
     18 H         141.5759  137.5173  160.9338 H       1  UNL1        0.1235
     19 C         140.1344  143.1715  161.4367 C.3     1  UNL1        0.1438
     20 C         138.7893  142.7606  161.9580 C.3     1  UNL1        0.1561
     21 O         137.5612  143.5145  161.5416 O.3     1  UNL1       -0.3780
     22 H         136.7818  143.1223  161.9654 H       1  UNL1        0.2109
     23 C         138.6722  141.5957  162.8957 C.ar    1  UNL1        0.0167
     24 C         138.6611  140.1963  162.3556 C.ar    1  UNL1       -0.0011
     25 C         138.5439  139.0314  163.2933 C.ar    1  UNL1        0.0037
     26 C         138.4379  139.2658  164.7711 C.ar    1  UNL1        0.0722
     27 C         138.4489  140.6652  165.3111 C.ar    1  UNL1        0.0150
     28 C         138.5661  141.8301  164.3734 C.ar    1  UNL1        0.0559
     29 CL        138.5772  143.2295  164.9135 Cl      1  UNL1       -0.0825
     30 C         138.3207  138.1010  165.7089 C.3     1  UNL1        0.4186
     31 F         138.2036  136.9361  166.6466 F       1  UNL1       -0.1659
     32 F         139.1993  137.2862  164.8065 F       1  UNL1       -0.1659
     33 F         137.4422  138.9158  166.6112 F       1  UNL1       -0.1659
@<TRIPOS>BOND
     1     1     2    1
     2     2     3   ar
     3     3     4   ar
     4     4     5   ar
     5     5     6   ar
     6     6     7   ar
     7     7    13    1
     8    13    14    1
     9    14    15    1
    10    15    16    1
    11    16    17    1
    12     7     8   ar
    13     8     9   ar
    14     9    10   ar
    15    10    19    1
    16    19    20    1
    17    20    21    1
    18    20    23    1
    19    23    24   ar
    20    24    25   ar
    21    25    26   ar
    22    26    30    1
    23    30    31    1
    24    30    32    1
    25    30    33    1
    26    26    27   ar
    27    27    28   ar
    28    28    29    1
    29    10     2   ar
    30    28    23   ar
    31     9     4   ar
    32    17    14    1
    33     1    11    1
    34     1    12    1
    35    16    18    1
    36    21    22    1
@<TRIPOS>MOLECULE
*****
 33 36 0 0 0
SMALL
GASTEIGER

@<TRIPOS>ATOM
      1 N         138.3848  137.2753  162.3401 N.pl3   1  UNL1       -0.3287
      2 C         139.6912  138.0089  162.4133 C.ar    1  UNL1        0.1959
      3 N         141.0485  137.3824  162.5356 N.ar    1  UNL1       -0.2123
      4 C         142.0658  138.4840  162.5749 C.ar    1  UNL1        0.1184
      5 C         143.5614  138.4656  162.6873 C.ar    1  UNL1        0.0271
      6 C         144.3284  139.7546  162.7016 C.ar    1  UNL1        0.0594
      7 C         143.5997  141.0620  162.6035 C.ar    1  UNL1        0.2262
      8 N         142.1040  141.0805  162.4911 N.ar    1  UNL1       -0.1926
      9 C         141.3371  139.7915  162.4768 C.ar    1  UNL1        0.1668
     10 N         139.8695  139.4978  162.3769 N.ar    1  UNL1       -0.2824
     11 H         138.3703  136.2914  162.3719 H       1  UNL1        0.1451
     12 H         137.5419  137.7777  162.2604 H       1  UNL1        0.1451
     13 O         144.3667  142.3511  162.6179 O.3     1  UNL1       -0.4611
     14 C         143.6492  143.6483  162.8465 C.3     1  UNL1        0.1988
     15 C         143.6993  144.7172  163.8976 C.3     1  UNL1        0.1143
     16 N         142.6344  145.4828  163.1698 N.3     1  UNL1       -0.2914
     17 C         142.5842  144.4139  162.1187 C.3     1  UNL1        0.1143
     18 H         142.9385  146.3930  162.8240 H       1  UNL1        0.1235
     19 C         138.7728  140.5146  162.2610 C.3     1  UNL1        0.1438
     20 C         137.9419  140.8616  163.4606 C.3     1  UNL1        0.1561
     21 O         136.5630  141.4241  163.2806 O.3     1  UNL1       -0.3780
     22 H         136.1662  141.5917  164.1497 H       1  UNL1        0.2109
     23 C         138.4897  140.6462  164.8403 C.ar    1  UNL1        0.0167
     24 C         138.0715  139.4441  165.6341 C.ar    1  UNL1       -0.0011
     25 C         138.6193  139.2286  167.0137 C.ar    1  UNL1        0.0037
     26 C         139.5853  140.2153  167.5996 C.ar    1  UNL1        0.0722
     27 C         140.0036  141.4174  166.8059 C.ar    1  UNL1        0.0150
     28 C         139.4558  141.6328  165.4262 C.ar    1  UNL1        0.0559
     29 CL        139.8740  142.8349  164.6324 Cl      1  UNL1       -0.0825
     30 C         140.1332  139.9999  168.9793 C.3     1  UNL1        0.4186
     31 F         140.6812  139.7845  170.3590 F       1  UNL1       -0.1659
     32 F         141.4528  139.5951  168.3920 F       1  UNL1       -0.1659
     33 F         138.8137  140.4047  169.5665 F       1  UNL1       -0.1659
@<TRIPOS>BOND
     1     1     2    1
     2     2     3   ar
     3     3     4   ar
     4     4     5   ar
     5     5     6   ar
     6     6     7   ar
     7     7    13    1
     8    13    14    1
     9    14    15    1
    10    15    16    1
    11    16    17    1
    12     7     8   ar
    13     8     9   ar
    14     9    10   ar
    15    10    19    1
    16    19    20    1
    17    20    21    1
    18    20    23    1
    19    23    24   ar
    20    24    25   ar
    21    25    26   ar
    22    26    30    1
    23    30    31    1
    24    30    32    1
    25    30    33    1
    26    26    27   ar
    27    27    28   ar
    28    28    29    1
    29    10     2   ar
    30    28    23   ar
    31     9     4   ar
    32    17    14    1
    33     1    11    1
    34     1    12    1
    35    16    18    1
    36    21    22    1
@<TRIPOS>MOLECULE
*****
 33 36 0 0 0
SMALL
GASTEIGER

@<TRIPOS>ATOM
      1 N         144.5563  138.4485  161.2897 N.pl3   1  UNL1       -0.3287
      2 C         144.1012  139.7511  161.8780 C.ar    1  UNL1        0.1959
      3 N         144.9732  140.9324  162.1850 N.ar    1  UNL1       -0.2123
      4 C         144.1052  142.0125  162.7594 C.ar    1  UNL1        0.1184
      5 C         144.4153  143.3974  163.2449 C.ar    1  UNL1        0.0271
      6 C         143.3170  144.2686  163.7784 C.ar    1  UNL1        0.0594
      7 C         141.9085  143.7549  163.8263 C.ar    1  UNL1        0.2262
      8 N         141.5984  142.3700  163.3408 N.ar    1  UNL1       -0.1926
      9 C         142.6967  141.4988  162.8073 C.ar    1  UNL1        0.1668
     10 N         142.6943  140.1012  162.2626 N.ar    1  UNL1       -0.2824
     11 H         145.5062  138.3130  161.0694 H       1  UNL1        0.1451
     12 H         143.9050  137.7290  161.1239 H       1  UNL1        0.1451
     13 O         140.8101  144.6262  164.3598 O.3     1  UNL1       -0.4611
     14 C         139.4563  144.6060  163.7143 C.3     1  UNL1        0.1988
     15 C         138.0797  144.1990  164.1495 C.3     1  UNL1        0.1143
     16 N         137.5417  144.5775  162.8014 N.3     1  UNL1       -0.2914
     17 C         138.9183  144.9845  162.3662 C.3     1  UNL1        0.1143
     18 H         136.8680  145.3431  162.8219 H       1  UNL1        0.1235
     19 C         141.4953  139.2101  162.1264 C.3     1  UNL1        0.1438
     20 C         141.1659  138.2254  163.2088 C.3     1  UNL1        0.1561
     21 O         141.3092  136.7542  162.9533 O.3     1  UNL1       -0.3780
     22 H         141.0577  136.2616  163.7502 H       1  UNL1        0.2109
     23 C         140.6931  138.7116  164.5467 C.ar    1  UNL1        0.0167
     24 C         139.2252  138.8712  164.8108 C.ar    1  UNL1       -0.0011
     25 C         138.7524  139.3575  166.1488 C.ar    1  UNL1        0.0037
     26 C         139.7475  139.6840  167.2226 C.ar    1  UNL1        0.0722
     27 C         141.2154  139.5244  166.9584 C.ar    1  UNL1        0.0150
     28 C         141.6882  139.0381  165.6205 C.ar    1  UNL1        0.0559
     29 CL        143.1561  138.8785  165.3564 Cl      1  UNL1       -0.0825
     30 C         139.2748  140.1703  168.5606 C.3     1  UNL1        0.4186
     31 F         138.8020  140.6565  169.8985 F       1  UNL1       -0.1659
     32 F         138.0391  139.3302  168.4292 F       1  UNL1       -0.1659
     33 F         140.5105  141.0103  168.6918 F       1  UNL1       -0.1659
@<TRIPOS>BOND
     1     1     2    1
     2     2     3   ar
     3     3     4   ar
     4     4     5   ar
     5     5     6   ar
     6     6     7   ar
     7     7    13    1
     8    13    14    1
     9    14    15    1
    10    15    16    1
    11    16    17    1
    12     7     8   ar
    13     8     9   ar
    14     9    10   ar
    15    10    19    1
    16    19    20    1
    17    20    21    1
    18    20    23    1
    19    23    24   ar
    20    24    25   ar
    21    25    26   ar
    22    26    30    1
    23    30    31    1
    24    30    32    1
    25    30    33    1
    26    26    27   ar
    27    27    28   ar
    28    28    29    1
    29    10     2   ar
    30    28    23   ar
    31     9     4   ar
    32    17    14    1
    33     1    11    1
    34     1    12    1
    35    16    18    1
    36    21    22    1
@<TRIPOS>MOLECULE
*****
 33 36 0 0 0
SMALL
GASTEIGER

@<TRIPOS>ATOM
      1 N         143.7786  145.5397  162.8333 N.pl3   1  UNL1       -0.3287
      2 C         142.5266  144.7707  163.1350 C.ar    1  UNL1        0.1959
      3 N         141.1828  145.3606  163.4452 N.ar    1  UNL1       -0.2123
      4 C         140.2241  144.2313  163.6813 C.ar    1  UNL1        0.1184
      5 C         138.7642  144.2093  164.0247 C.ar    1  UNL1        0.0271
      6 C         138.0555  142.8995  164.2038 C.ar    1  UNL1        0.0594
      7 C         138.8068  141.6116  164.0395 C.ar    1  UNL1        0.2262
      8 N         140.2668  141.6336  163.6961 N.ar    1  UNL1       -0.1926
      9 C         140.9754  142.9435  163.5170 C.ar    1  UNL1        0.1668
     10 N         142.3984  143.2769  163.1793 N.ar    1  UNL1       -0.2824
     11 H         143.7625  146.5240  162.8277 H       1  UNL1        0.1451
     12 H         144.6166  145.0600  162.6409 H       1  UNL1        0.1451
     13 O         138.0981  140.3017  164.2186 O.3     1  UNL1       -0.4611
     14 C         138.2446  139.2226  163.1871 C.3     1  UNL1        0.1988
     15 C         138.8726  137.8607  163.1588 C.3     1  UNL1        0.1143
     16 N         138.4518  137.6964  161.7284 N.3     1  UNL1       -0.2914
     17 C         137.8238  139.0583  161.7568 C.3     1  UNL1        0.1143
     18 H         137.7900  136.9358  161.5738 H       1  UNL1        0.1235
     19 C         143.4999  142.2897  162.9298 C.3     1  UNL1        0.1438
     20 C         144.3640  141.8272  164.0653 C.3     1  UNL1        0.1561
     21 O         145.8579  141.8940  163.9464 O.3     1  UNL1       -0.3780
     22 H         146.2624  141.5594  164.7620 H       1  UNL1        0.2109
     23 C         143.7345  141.2979  165.3197 C.ar    1  UNL1        0.0167
     24 C         143.3194  142.2438  166.4073 C.ar    1  UNL1       -0.0011
     25 C         142.6898  141.7145  167.6617 C.ar    1  UNL1        0.0037
     26 C         142.4755  140.2393  167.8285 C.ar    1  UNL1        0.0722
     27 C         142.8906  139.2935  166.7409 C.ar    1  UNL1        0.0150
     28 C         143.5202  139.8227  165.4865 C.ar    1  UNL1        0.0559
     29 CL        143.9353  138.8769  164.3989 Cl      1  UNL1       -0.0825
     30 C         141.8460  139.7099  169.0829 C.3     1  UNL1        0.4186
     31 F         141.2164  139.1806  170.3373 F       1  UNL1       -0.1659
     32 F         140.9034  140.8766  169.1022 F       1  UNL1       -0.1659
     33 F         142.7886  138.5434  169.0636 F       1  UNL1       -0.1659
@<TRIPOS>BOND
     1     1     2    1
     2     2     3   ar
     3     3     4   ar
     4     4     5   ar
     5     5     6   ar
     6     6     7   ar
     7     7    13    1
     8    13    14    1
     9    14    15    1
    10    15    16    1
    11    16    17    1
    12     7     8   ar
    13     8     9   ar
    14     9    10   ar
    15    10    19    1
    16    19    20    1
    17    20    21    1
    18    20    23    1
    19    23    24   ar
    20    24    25   ar
    21    25    26   ar
    22    26    30    1
    23    30    31    1
    24    30    32    1
    25    30    33    1
    26    26    27   ar
    27    27    28   ar
    28    28    29    1
    29    10     2   ar
    30    28    23   ar
    31     9     4   ar
    32    17    14    1
    33     1    11    1
    34     1    12    1
    35    16    18    1
    36    21    22    1
@<TRIPOS>MOLECULE
*****
 33 36 0 0 0
SMALL
GASTEIGER

@<TRIPOS>ATOM
      1 N         137.7645  144.5954  162.4256 N.pl3   1  UNL1       -0.3287
      2 C         138.1549  143.1504  162.3276 C.ar    1  UNL1        0.1959
      3 N         137.2191  141.9791  162.3752 N.ar    1  UNL1       -0.2123
      4 C         138.0354  140.7278  162.2419 C.ar    1  UNL1        0.1184
      5 C         137.6533  139.2775  162.2220 C.ar    1  UNL1        0.0271
      6 C         138.7116  138.2251  162.0723 C.ar    1  UNL1        0.0594
      7 C         140.1520  138.6230  161.9423 C.ar    1  UNL1        0.2262
      8 N         140.5341  140.0733  161.9622 N.ar    1  UNL1       -0.1926
      9 C         139.4758  141.1257  162.1120 C.ar    1  UNL1        0.1668
     10 N         139.5496  142.6230  162.1650 N.ar    1  UNL1       -0.2824
     11 H         136.8177  144.8434  162.5316 H       1  UNL1        0.1451
     12 H         138.4551  145.2958  162.3839 H       1  UNL1        0.1451
     13 O         141.2103  137.5705  161.7926 O.3     1  UNL1       -0.4611
     14 C         142.6131  137.9630  161.4348 C.3     1  UNL1        0.1988
     15 C         143.3791  138.1108  160.1537 C.3     1  UNL1        0.1143
     16 N         144.5970  138.5182  160.9289 N.3     1  UNL1       -0.2914
     17 C         143.8309  138.3704  162.2100 C.3     1  UNL1        0.1143
     18 H         144.9121  139.4696  160.7395 H       1  UNL1        0.1235
     19 C         140.7989  143.4480  162.0717 C.3     1  UNL1        0.1438
     20 C         141.2546  144.2551  163.2509 C.3     1  UNL1        0.1561
     21 O         141.3132  145.7511  163.1584 O.3     1  UNL1       -0.3780
     22 H         141.6260  146.1152  164.0013 H       1  UNL1        0.2109
     23 C         141.6517  143.5663  164.5229 C.ar    1  UNL1        0.0167
     24 C         140.6086  143.2107  165.5405 C.ar    1  UNL1       -0.0011
     25 C         141.0057  142.5220  166.8125 C.ar    1  UNL1        0.0037
     26 C         142.4459  142.1888  167.0669 C.ar    1  UNL1        0.0722
     27 C         143.4890  142.5444  166.0493 C.ar    1  UNL1        0.0150
     28 C         143.0919  143.2332  164.7773 C.ar    1  UNL1        0.0559
     29 CL        144.1350  143.5888  163.7598 Cl      1  UNL1       -0.0825
     30 C         142.8431  141.5000  168.3389 C.3     1  UNL1        0.4186
     31 F         143.2404  140.8114  169.6108 F       1  UNL1       -0.1659
     32 F         143.8523  142.5769  168.6067 F       1  UNL1       -0.1659
     33 F         141.8339  140.4232  168.0709 F       1  UNL1       -0.1659
@<TRIPOS>BOND
     1     1     2    1
     2     2     3   ar
     3     3     4   ar
     4     4     5   ar
     5     5     6   ar
     6     6     7   ar
     7     7    13    1
     8    13    14    1
     9    14    15    1
    10    15    16    1
    11    16    17    1
    12     7     8   ar
    13     8     9   ar
    14     9    10   ar
    15    10    19    1
    16    19    20    1
    17    20    21    1
    18    20    23    1
    19    23    24   ar
    20    24    25   ar
    21    25    26   ar
    22    26    30    1
    23    30    31    1
    24    30    32    1
    25    30    33    1
    26    26    27   ar
    27    27    28   ar
    28    28    29    1
    29    10     2   ar
    30    28    23   ar
    31     9     4   ar
    32    17    14    1
    33     1    11    1
    34     1    12    1
    35    16    18    1
    36    21    22    1
@<TRIPOS>MOLECULE
*****
 33 36 0 0 0
SMALL
GASTEIGER

@<TRIPOS>ATOM
      1 N         144.4889  138.0988  161.6678 N.pl3   1  UNL1       -0.3287
      2 C         143.4200  138.4745  162.6508 C.ar    1  UNL1        0.1959
      3 N         142.0205  137.9353  162.6805 N.ar    1  UNL1       -0.2123
      4 C         141.2984  138.5828  163.8247 C.ar    1  UNL1        0.1184
      5 C         139.8961  138.4384  164.3372 C.ar    1  UNL1        0.0271
      6 C         139.4470  139.2334  165.5273 C.ar    1  UNL1        0.0594
      7 C         140.4002  140.1727  166.2049 C.ar    1  UNL1        0.2262
      8 N         141.8025  140.3171  165.6924 N.ar    1  UNL1       -0.1926
      9 C         142.2516  139.5221  164.5023 C.ar    1  UNL1        0.1668
     10 N         143.5628  139.4551  163.7768 N.ar    1  UNL1       -0.2824
     11 H         144.2979  137.4417  160.9601 H       1  UNL1        0.1451
     12 H         145.3815  138.5095  161.7304 H       1  UNL1        0.1451
     13 O         139.9510  140.9676  167.3950 O.3     1  UNL1       -0.4611
     14 C         140.1081  140.4039  168.7761 C.3     1  UNL1        0.1988
     15 C         141.2072  139.7007  169.5161 C.3     1  UNL1        0.1143
     16 N         140.3302  139.6067  170.7294 N.3     1  UNL1       -0.2914
     17 C         139.2311  140.3099  169.9894 C.3     1  UNL1        0.1143
     18 H         140.6819  140.1191  171.5381 H       1  UNL1        0.1235
     19 C         144.7996  140.2324  164.1175 C.3     1  UNL1        0.1438
     20 C         145.0879  141.5276  163.4182 C.3     1  UNL1        0.1561
     21 O         146.4833  141.8414  162.9659 O.3     1  UNL1       -0.3780
     22 H         146.4959  142.7104  162.5352 H       1  UNL1        0.2109
     23 C         143.9809  142.5092  163.1710 C.ar    1  UNL1        0.0167
     24 C         143.1837  142.4368  161.9025 C.ar    1  UNL1       -0.0011
     25 C         142.0767  143.4184  161.6553 C.ar    1  UNL1        0.0037
     26 C         141.7670  144.4724  162.6767 C.ar    1  UNL1        0.0722
     27 C         142.5643  144.5448  163.9452 C.ar    1  UNL1        0.0150
     28 C         143.6712  143.5632  164.1923 C.ar    1  UNL1        0.0559
     29 CL        144.4685  143.6356  165.4608 Cl      1  UNL1       -0.0825
     30 C         140.6600  145.4541  162.4296 C.3     1  UNL1        0.4186
     31 F         139.5530  146.4357  162.1826 F       1  UNL1       -0.1659
     32 F         140.2606  145.3668  163.8728 F       1  UNL1       -0.1659
     33 F         141.0595  145.5413  160.9865 F       1  UNL1       -0.1659
@<TRIPOS>BOND
     1     1     2    1
     2     2     3   ar
     3     3     4   ar
     4     4     5   ar
     5     5     6   ar
     6     6     7   ar
     7     7    13    1
     8    13    14    1
     9    14    15    1
    10    15    16    1
    11    16    17    1
    12     7     8   ar
    13     8     9   ar
    14     9    10   ar
    15    10    19    1
    16    19    20    1
    17    20    21    1
    18    20    23    1
    19    23    24   ar
    20    24    25   ar
    21    25    26   ar
    22    26    30    1
    23    30    31    1
    24    30    32    1
    25    30    33    1
    26    26    27   ar
    27    27    28   ar
    28    28    29    1
    29    10     2   ar
    30    28    23   ar
    31     9     4   ar
    32    17    14    1
    33     1    11    1
    34     1    12    1
    35    16    18    1
    36    21    22    1
@<TRIPOS>MOLECULE
*****
 33 36 0 0 0
SMALL
GASTEIGER

@<TRIPOS>ATOM
      1 N         141.7318  145.4087  160.4096 N.pl3   1  UNL1       -0.3287
      2 C         142.0435  144.7239  161.7073 C.ar    1  UNL1        0.1959
      3 N         143.4134  144.4614  162.2589 N.ar    1  UNL1       -0.2123
      4 C         143.2565  143.7567  163.5737 C.ar    1  UNL1        0.1184
      5 C         144.2599  143.2502  164.5670 C.ar    1  UNL1        0.0271
      6 C         143.7963  142.5706  165.8213 C.ar    1  UNL1        0.0594
      7 C         142.3294  142.3976  166.0823 C.ar    1  UNL1        0.2262
      8 N         141.3260  142.9041  165.0890 N.ar    1  UNL1       -0.1926
      9 C         141.7896  143.5836  163.8347 C.ar    1  UNL1        0.1668
     10 N         141.0399  144.1814  162.6812 N.ar    1  UNL1       -0.2824
     11 H         142.4633  145.7318  159.8354 H       1  UNL1        0.1451
     12 H         140.7957  145.5351  160.1321 H       1  UNL1        0.1451
     13 O         141.8658  141.7180  167.3367 O.3     1  UNL1       -0.4611
     14 C         141.5939  142.5260  168.5708 C.3     1  UNL1        0.1988
     15 C         142.3830  142.8956  169.7918 C.3     1  UNL1        0.1143
     16 N         141.2094  143.6687  170.3162 N.3     1  UNL1       -0.2914
     17 C         140.4203  143.2991  169.0952 C.3     1  UNL1        0.1143
     18 H         141.3803  144.6695  170.4144 H       1  UNL1        0.1235
     19 C         139.5484  144.2285  162.5285 C.3     1  UNL1        0.1438
     20 C         138.8100  143.0327  162.0044 C.3     1  UNL1        0.1561
     21 O         138.1162  143.1024  160.6763 O.3     1  UNL1       -0.3780
     22 H         137.6910  142.2510  160.4885 H       1  UNL1        0.2109
     23 C         138.7654  141.7671  162.8083 C.ar    1  UNL1        0.0167
     24 C         139.3994  140.5168  162.2746 C.ar    1  UNL1       -0.0011
     25 C         139.3547  139.2512  163.0785 C.ar    1  UNL1        0.0037
     26 C         138.6761  139.2359  164.4161 C.ar    1  UNL1        0.0722
     27 C         138.0421  140.4861  164.9498 C.ar    1  UNL1        0.0150
     28 C         138.0867  141.7518  164.1459 C.ar    1  UNL1        0.0559
     29 CL        137.4527  143.0020  164.6796 Cl      1  UNL1       -0.0825
     30 C         138.6314  137.9703  165.2201 C.3     1  UNL1        0.4186
     31 F         138.5866  136.7048  166.0241 F       1  UNL1       -0.1659
     32 F         137.7183  138.6313  166.2097 F       1  UNL1       -0.1659
     33 F         139.5444  137.3094  164.2304 F       1  UNL1       -0.1659
@<TRIPOS>BOND
     1     1     2    1
     2     2     3   ar
     3     3     4   ar
     4     4     5   ar
     5     5     6   ar
     6     6     7   ar
     7     7    13    1
     8    13    14    1
     9    14    15    1
    10    15    16    1
    11    16    17    1
    12     7     8   ar
    13     8     9   ar
    14     9    10   ar
    15    10    19    1
    16    19    20    1
    17    20    21    1
    18    20    23    1
    19    23    24   ar
    20    24    25   ar
    21    25    26   ar
    22    26    30    1
    23    30    31    1
    24    30    32    1
    25    30    33    1
    26    26    27   ar
    27    27    28   ar
    28    28    29    1
    29    10     2   ar
    30    28    23   ar
    31     9     4   ar
    32    17    14    1
    33     1    11    1
    34     1    12    1
    35    16    18    1
    36    21    22    1
@<TRIPOS>MOLECULE
*****
 33 36 0 0 0
SMALL
GASTEIGER

@<TRIPOS>ATOM
      1 N         139.9421  146.5486  162.2990 N.pl3   1  UNL1       -0.3287
      2 C         140.7933  145.3774  161.9068 C.ar    1  UNL1        0.1959
      3 N         141.2305  145.0323  160.5140 N.ar    1  UNL1       -0.2123
      4 C         142.0641  143.7872  160.5849 C.ar    1  UNL1        0.1184
      5 C         142.7622  142.9852  159.5270 C.ar    1  UNL1        0.0271
      6 C         143.5382  141.7587  159.9056 C.ar    1  UNL1        0.0594
      7 C         143.6161  141.3342  161.3422 C.ar    1  UNL1        0.2262
      8 N         142.9180  142.1363  162.4001 N.ar    1  UNL1       -0.1926
      9 C         142.1420  143.3628  162.0215 C.ar    1  UNL1        0.1668
     10 N         141.3565  144.3455  162.8384 N.ar    1  UNL1       -0.2824
     11 H         139.6186  147.1742  161.6111 H       1  UNL1        0.1451
     12 H         139.7071  146.6917  163.2442 H       1  UNL1        0.1451
     13 O         144.3922  140.1076  161.7208 O.3     1  UNL1       -0.4611
     14 C         144.2514  139.5259  163.0962 C.3     1  UNL1        0.1988
     15 C         145.0911  139.5263  164.3391 C.3     1  UNL1        0.1143
     16 N         144.0522  138.7031  165.0413 N.3     1  UNL1       -0.2914
     17 C         143.2125  138.7026  163.7984 C.3     1  UNL1        0.1143
     18 H         143.6181  139.1709  165.8370 H       1  UNL1        0.1235
     19 C         141.1676  144.3037  164.3259 C.3     1  UNL1        0.1438
     20 C         139.8087  144.0370  164.9022 C.3     1  UNL1        0.1561
     21 O         138.8607  145.1739  165.1450 O.3     1  UNL1       -0.3780
     22 H         138.0334  144.8310  165.5176 H       1  UNL1        0.2109
     23 C         139.3977  142.6335  165.2357 C.ar    1  UNL1        0.0167
     24 C         139.9974  141.9382  166.4217 C.ar    1  UNL1       -0.0011
     25 C         139.5864  140.5347  166.7552 C.ar    1  UNL1        0.0037
     26 C         138.5756  139.8265  165.9027 C.ar    1  UNL1        0.0722
     27 C         137.9758  140.5219  164.7167 C.ar    1  UNL1        0.0150
     28 C         138.3869  141.9254  164.3832 C.ar    1  UNL1        0.0559
     29 CL        137.7871  142.6208  163.1971 Cl      1  UNL1       -0.0825
     30 C         138.1645  138.4230  166.2362 C.3     1  UNL1        0.4186
     31 F         137.7534  137.0195  166.5695 F       1  UNL1       -0.1659
     32 F         138.5672  137.9785  164.8613 F       1  UNL1       -0.1659
     33 F         137.7617  138.8676  167.6109 F       1  UNL1       -0.1659
@<TRIPOS>BOND
     1     1     2    1
     2     2     3   ar
     3     3     4   ar
     4     4     5   ar
     5     5     6   ar
     6     6     7   ar
     7     7    13    1
     8    13    14    1
     9    14    15    1
    10    15    16    1
    11    16    17    1
    12     7     8   ar
    13     8     9   ar
    14     9    10   ar
    15    10    19    1
    16    19    20    1
    17    20    21    1
    18    20    23    1
    19    23    24   ar
    20    24    25   ar
    21    25    26   ar
    22    26    30    1
    23    30    31    1
    24    30    32    1
    25    30    33    1
    26    26    27   ar
    27    27    28   ar
    28    28    29    1
    29    10     2   ar
    30    28    23   ar
    31     9     4   ar
    32    17    14    1
    33     1    11    1
    34     1    12    1
    35    16    18    1
    36    21    22    1
@<TRIPOS>MOLECULE
*****
 33 36 0 0 0
SMALL
GASTEIGER

@<TRIPOS>ATOM
      1 N         140.6785  137.2635  163.9387 N.pl3   1  UNL1       -0.3287
      2 C         141.3206  138.5357  163.4704 C.ar    1  UNL1        0.1959
      3 N         142.7853  138.8550  163.5220 N.ar    1  UNL1       -0.2123
      4 C         142.9807  140.2285  162.9517 C.ar    1  UNL1        0.1184
      5 C         144.2088  141.0654  162.7482 C.ar    1  UNL1        0.0271
      6 C         144.0929  142.4319  162.1406 C.ar    1  UNL1        0.0594
      7 C         142.7490  142.9615  161.7364 C.ar    1  UNL1        0.2262
      8 N         141.5209  142.1246  161.9399 N.ar    1  UNL1       -0.1926
      9 C         141.6368  140.7581  162.5476 C.ar    1  UNL1        0.1668
     10 N         140.6108  139.7119  162.8681 N.ar    1  UNL1       -0.2824
     11 H         141.2316  136.5450  164.3221 H       1  UNL1        0.1451
     12 H         139.7038  137.1471  163.8627 H       1  UNL1        0.1451
     13 O         142.6331  144.3280  161.1287 O.3     1  UNL1       -0.4611
     14 C         141.3140  145.0420  161.1345 C.3     1  UNL1        0.1988
     15 C         140.2721  145.3535  160.1013 C.3     1  UNL1        0.1143
     16 N         139.4484  146.0517  161.1426 N.3     1  UNL1       -0.2914
     17 C         140.4903  145.7402  162.1757 C.3     1  UNL1        0.1143
     18 H         138.5435  145.6155  161.3191 H       1  UNL1        0.1235
     19 C         139.1342  139.8225  162.6284 C.3     1  UNL1        0.1438
     20 C         138.2472  140.4250  163.6772 C.3     1  UNL1        0.1561
     21 O         136.9720  141.1075  163.2793 O.3     1  UNL1       -0.3780
     22 H         136.5215  141.4386  164.0720 H       1  UNL1        0.2109
     23 C         138.6352  140.3452  165.1240 C.ar    1  UNL1        0.0167
     24 C         138.2020  139.1726  165.9531 C.ar    1  UNL1       -0.0011
     25 C         138.5900  139.0929  167.3998 C.ar    1  UNL1        0.0037
     26 C         139.4112  140.1857  168.0175 C.ar    1  UNL1        0.0722
     27 C         139.8443  141.3582  167.1884 C.ar    1  UNL1        0.0150
     28 C         139.4563  141.4380  165.7416 C.ar    1  UNL1        0.0559
     29 CL        139.8894  142.6106  164.9125 Cl      1  UNL1       -0.0825
     30 C         139.7992  140.1059  169.4643 C.3     1  UNL1        0.4186
     31 F         140.1871  140.0262  170.9110 F       1  UNL1       -0.1659
     32 F         138.3519  140.1568  169.8552 F       1  UNL1       -0.1659
     33 F         141.2464  140.0551  169.0733 F       1  UNL1       -0.1659
@<TRIPOS>BOND
     1     1     2    1
     2     2     3   ar
     3     3     4   ar
     4     4     5   ar
     5     5     6   ar
     6     6     7   ar
     7     7    13    1
     8    13    14    1
     9    14    15    1
    10    15    16    1
    11    16    17    1
    12     7     8   ar
    13     8     9   ar
    14     9    10   ar
    15    10    19    1
    16    19    20    1
    17    20    21    1
    18    20    23    1
    19    23    24   ar
    20    24    25   ar
    21    25    26   ar
    22    26    30    1
    23    30    31    1
    24    30    32    1
    25    30    33    1
    26    26    27   ar
    27    27    28   ar
    28    28    29    1
    29    10     2   ar
    30    28    23   ar
    31     9     4   ar
    32    17    14    1
    33     1    11    1
    34     1    12    1
    35    16    18    1
    36    21    22    1
