@<TRIPOS>MOLECULE
*****
 44 49 0 0 0
SMALL
GASTEIGER

@<TRIPOS>ATOM
      1 C         142.7349  138.3199  162.6704 C.3     1  UNL1        0.1299
      2 C         141.9132  137.6685  163.7430 C.3     1  UNL1        0.0278
      3 C         141.6844  138.1256  165.1532 C.3     1  UNL1        0.0085
      4 C         142.2210  139.3471  165.8391 C.3     1  UNL1        0.0473
      5 C         143.1186  140.4130  165.2842 C.3     1  UNL1        0.1113
      6 N         143.7016  140.5207  163.9062 N.ar    1  UNL1       -0.3163
      7 C         144.5930  141.6462  163.4718 C.ar    1  UNL1        0.0658
      8 C         144.9731  141.4102  162.0401 C.ar    1  UNL1        0.1132
      9 N         144.3166  140.1390  161.5897 N.ar    1  UNL1       -0.2280
     10 C         143.5308  139.5892  162.7430 C.ar    1  UNL1        0.1381
     11 O         140.7977  136.5423  152.5048 O.2     1  UNL1       -0.2260
     12 C         141.4929  135.9479  153.6937 C.2     1  UNL1        0.4065
     13 N         142.2179  134.6413  153.5627 N.am    1  UNL1       -0.2352
     14 C         142.9132  134.0468  154.7515 C.ar    1  UNL1        0.1358
     15 N         143.6381  132.7402  154.6205 N.ar    1  UNL1       -0.2291
     16 C         144.3333  132.1457  155.8093 C.ar    1  UNL1        0.1003
     17 C         144.3036  132.8579  157.1291 C.ar    1  UNL1        0.0206
     18 C         143.5787  134.1645  157.2601 C.ar    1  UNL1        0.0034
     19 C         142.8834  134.7590  156.0713 C.ar    1  UNL1        0.0456
     20 C         142.1585  136.0656  156.2023 C.3     1  UNL1        0.1620
     21 C         142.8537  135.4711  157.3911 C.3     1  UNL1        0.0662
     22 C         142.8240  136.1833  158.7109 C.3     1  UNL1        0.0989
     23 N         142.0990  137.4900  158.8419 N.am    1  UNL1       -0.2640
     24 C         142.0693  138.2022  160.1617 C.2     1  UNL1        0.3042
     25 O         141.3444  139.5088  160.2927 O.2     1  UNL1       -0.2526
     26 N         142.7646  137.6077  161.3506 N.am    1  UNL1       -0.2837
     27 C         141.4038  138.0844  157.6531 C.3     1  UNL1        0.0989
     28 C         141.4335  137.3722  156.3333 C.3     1  UNL1        0.0662
     29 O         141.4632  136.6600  155.0135 O.3     1  UNL1       -0.4373
     30 H         142.2374  134.1738  152.6964 H       1  UNL1        0.1596
     31 H         143.2404  136.7501  161.2646 H       1  UNL1        0.1513
     32 C         141.8046  139.5262  167.2690 C.ar    1  UNL1        0.0091
     33 C         142.7849  139.2646  168.3739 C.ar    1  UNL1       -0.0019
     34 C         142.3687  139.4437  169.8038 C.ar    1  UNL1        0.0021
     35 C         140.9722  139.8843  170.1288 C.ar    1  UNL1        0.0319
     36 C         139.9920  140.1459  169.0241 C.ar    1  UNL1        0.1671
     37 F         138.5955  140.5866  169.3491 F       1  UNL1       -0.2018
     38 C         140.4082  139.9669  167.5941 C.ar    1  UNL1        0.1634
     39 F         139.4280  140.2285  166.4893 F       1  UNL1       -0.2021
     40 C         145.0279  142.8042  164.3201 C.3     1  UNL1        0.1485
     41 C         144.1684  144.0299  164.4137 C.3     1  UNL1        0.4032
     42 F         143.3088  145.2557  164.5073 F       1  UNL1       -0.1696
     43 F         143.7273  143.6160  165.7863 F       1  UNL1       -0.1696
     44 F         144.6093  144.4440  163.0411 F       1  UNL1       -0.1696
@<TRIPOS>BOND
     1    11    12    2
     2    12    13   am
     3    13    14    1
     4    14    15   ar
     5    15    16   ar
     6    16    17   ar
     7    17    18   ar
     8    18    19   ar
     9    19    20    1
    10    20    21    1
    11    21    22    1
    12    22    23    1
    13    23    24   am
    14    24    25    2
    15    24    26   am
    16     1    26    1
    17     1     2    1
    18     2     3    1
    19     3     4    1
    20     4    32    1
    21    32    33   ar
    22    33    34   ar
    23    34    35   ar
    24    35    36   ar
    25    36    37    1
    26    36    38   ar
    27    38    39    1
    28     4     5    1
    29     5     6    1
    30     6     7   ar
    31     7    40    1
    32    40    41    1
    33    41    42    1
    34    41    43    1
    35    41    44    1
    36     7     8   ar
    37     8     9   ar
    38     9    10   ar
    39    23    27    1
    40    27    28    1
    41    20    29    1
    42    29    12    1
    43    19    14   ar
    44    28    20    1
    45    10     1    1
    46    38    32   ar
    47    10     6   ar
    48    13    30    1
    49    26    31    1
@<TRIPOS>MOLECULE
*****
 44 49 0 0 0
SMALL
GASTEIGER

@<TRIPOS>ATOM
      1 C         140.1819  143.6874  159.5885 C.3     1  UNL1        0.1299
      2 C         140.7500  145.0448  159.2971 C.3     1  UNL1        0.0278
      3 C         140.6171  145.8660  158.0489 C.3     1  UNL1        0.0085
      4 C         139.8833  145.5327  156.7838 C.3     1  UNL1        0.0473
      5 C         139.1011  144.2958  156.4544 C.3     1  UNL1        0.1113
      6 N         138.8597  143.0868  157.3089 N.ar    1  UNL1       -0.3163
      7 C         138.0524  141.9051  156.8593 C.ar    1  UNL1        0.0658
      8 C         138.0346  140.9041  157.9763 C.ar    1  UNL1        0.1132
      9 N         138.8307  141.4671  159.1161 N.ar    1  UNL1       -0.2280
     10 C         139.3407  142.8161  158.7037 C.ar    1  UNL1        0.1381
     11 O         140.0338  142.8120  170.0509 O.2     1  UNL1       -0.2260
     12 C         140.6080  142.1705  168.8225 C.2     1  UNL1        0.4065
     13 N         141.4968  140.9689  168.9496 N.am    1  UNL1       -0.2352
     14 C         142.0709  140.3274  167.7212 C.ar    1  UNL1        0.1358
     15 N         142.9598  139.1259  167.8483 N.ar    1  UNL1       -0.2291
     16 C         143.5339  138.4844  166.6200 C.ar    1  UNL1        0.1003
     17 C         143.2190  139.0444  165.2645 C.ar    1  UNL1        0.0206
     18 C         142.3301  140.2459  165.1374 C.ar    1  UNL1        0.0034
     19 C         141.7561  140.8874  166.3657 C.ar    1  UNL1        0.0456
     20 C         140.8672  142.0890  166.2387 C.3     1  UNL1        0.1620
     21 C         141.4413  141.4474  165.0103 C.3     1  UNL1        0.0662
     22 C         141.1264  142.0074  163.6548 C.3     1  UNL1        0.0989
     23 N         140.2375  143.2090  163.5278 N.am    1  UNL1       -0.2640
     24 C         139.9226  143.7690  162.1723 C.2     1  UNL1        0.3042
     25 O         139.0338  144.9705  162.0452 O.2     1  UNL1       -0.2526
     26 N         140.4967  143.1274  160.9439 N.am    1  UNL1       -0.2837
     27 C         139.6634  143.8505  164.7561 C.3     1  UNL1        0.0989
     28 C         139.9783  143.2905  166.1116 C.3     1  UNL1        0.0662
     29 O         140.2931  142.7305  167.4670 O.3     1  UNL1       -0.4373
     30 H         141.7035  140.6014  169.8392 H       1  UNL1        0.1596
     31 H         141.0802  142.3388  161.0273 H       1  UNL1        0.1513
     32 C         139.9390  146.5739  155.7055 C.ar    1  UNL1        0.0091
     33 C         140.6909  146.3001  154.4367 C.ar    1  UNL1       -0.0019
     34 C         140.7467  147.3412  153.3584 C.ar    1  UNL1        0.0021
     35 C         140.0506  148.6562  153.5488 C.ar    1  UNL1        0.0319
     36 C         139.2988  148.9301  154.8176 C.ar    1  UNL1        0.1671
     37 F         138.6027  150.2451  155.0080 F       1  UNL1       -0.2018
     38 C         139.2430  147.8889  155.8959 C.ar    1  UNL1        0.1634
     39 F         138.4912  148.1627  157.1646 F       1  UNL1       -0.2021
     40 C         137.3810  141.7515  155.5269 C.3     1  UNL1        0.1485
     41 C         135.8839  141.7611  155.4359 C.3     1  UNL1        0.4032
     42 F         134.3866  141.7707  155.3449 F       1  UNL1       -0.1696
     43 F         135.8680  140.2646  155.5372 F       1  UNL1       -0.1696
     44 F         135.8996  143.2576  155.3346 F       1  UNL1       -0.1696
@<TRIPOS>BOND
     1    11    12    2
     2    12    13   am
     3    13    14    1
     4    14    15   ar
     5    15    16   ar
     6    16    17   ar
     7    17    18   ar
     8    18    19   ar
     9    19    20    1
    10    20    21    1
    11    21    22    1
    12    22    23    1
    13    23    24   am
    14    24    25    2
    15    24    26   am
    16     1    26    1
    17     1     2    1
    18     2     3    1
    19     3     4    1
    20     4    32    1
    21    32    33   ar
    22    33    34   ar
    23    34    35   ar
    24    35    36   ar
    25    36    37    1
    26    36    38   ar
    27    38    39    1
    28     4     5    1
    29     5     6    1
    30     6     7   ar
    31     7    40    1
    32    40    41    1
    33    41    42    1
    34    41    43    1
    35    41    44    1
    36     7     8   ar
    37     8     9   ar
    38     9    10   ar
    39    23    27    1
    40    27    28    1
    41    20    29    1
    42    29    12    1
    43    19    14   ar
    44    28    20    1
    45    10     1    1
    46    38    32   ar
    47    10     6   ar
    48    13    30    1
    49    26    31    1
@<TRIPOS>MOLECULE
*****
 44 49 0 0 0
SMALL
GASTEIGER

@<TRIPOS>ATOM
      1 C         142.8527  142.1807  161.7335 C.3     1  UNL1        0.1299
      2 C         143.8225  141.1684  161.2000 C.3     1  UNL1        0.0278
      3 C         144.3712  141.0409  159.8097 C.3     1  UNL1        0.0085
      4 C         144.0854  141.8943  158.6096 C.3     1  UNL1        0.0473
      5 C         143.1804  143.0859  158.5034 C.3     1  UNL1        0.1113
      6 N         142.3378  143.7183  159.5710 N.ar    1  UNL1       -0.3163
      7 C         141.4684  144.9178  159.3352 C.ar    1  UNL1        0.0658
      8 C         140.7852  145.2562  160.6270 C.ar    1  UNL1        0.1132
      9 N         141.2323  144.2660  161.6611 N.ar    1  UNL1       -0.2280
     10 C         142.1919  143.3155  161.0086 C.ar    1  UNL1        0.1381
     11 O         137.3906  139.1811  170.1845 O.2     1  UNL1       -0.2260
     12 C         138.6177  139.9457  169.7846 C.2     1  UNL1        0.4065
     13 N         139.4885  140.5690  170.8348 N.am    1  UNL1       -0.2352
     14 C         140.7156  141.3335  170.4349 C.ar    1  UNL1        0.1358
     15 N         141.5864  141.9568  171.4852 N.ar    1  UNL1       -0.2291
     16 C         142.8134  142.7213  171.0853 C.ar    1  UNL1        0.1003
     17 C         143.1696  142.8625  169.6350 C.ar    1  UNL1        0.0206
     18 C         142.2987  142.2392  168.5847 C.ar    1  UNL1        0.0034
     19 C         141.0718  141.4747  168.9847 C.ar    1  UNL1        0.0456
     20 C         140.2009  140.8514  167.9344 C.3     1  UNL1        0.1620
     21 C         141.4279  141.6159  167.5344 C.3     1  UNL1        0.0662
     22 C         141.7841  141.7571  166.0842 C.3     1  UNL1        0.0989
     23 N         140.9132  141.1338  165.0339 N.am    1  UNL1       -0.2640
     24 C         141.2694  141.2750  163.5836 C.2     1  UNL1        0.3042
     25 O         140.3986  140.6517  162.5334 O.2     1  UNL1       -0.2526
     26 N         142.4965  142.0395  163.1837 N.am    1  UNL1       -0.2837
     27 C         139.6862  140.3693  165.4338 C.3     1  UNL1        0.0989
     28 C         139.3301  140.2281  166.8841 C.3     1  UNL1        0.0662
     29 O         138.9739  140.0869  168.3343 O.3     1  UNL1       -0.4373
     30 H         139.2547  140.4763  171.7867 H       1  UNL1        0.1596
     31 H         143.0680  142.4486  163.8731 H       1  UNL1        0.1513
     32 C         144.7990  141.5045  157.3491 C.ar    1  UNL1        0.0091
     33 C         144.1921  140.4886  156.4273 C.ar    1  UNL1       -0.0019
     34 C         144.9055  140.0988  155.1668 C.ar    1  UNL1        0.0021
     35 C         146.2260  140.7247  154.8281 C.ar    1  UNL1        0.0319
     36 C         146.8329  141.7405  155.7499 C.ar    1  UNL1        0.1671
     37 F         148.1533  142.3664  155.4113 F       1  UNL1       -0.2018
     38 C         146.1194  142.1304  157.0105 C.ar    1  UNL1        0.1634
     39 F         146.7262  143.1461  157.9323 F       1  UNL1       -0.2021
     40 C         141.3100  145.6501  158.0358 C.3     1  UNL1        0.1485
     41 C         140.0683  145.4624  157.2156 C.3     1  UNL1        0.4032
     42 F         138.8264  145.2746  156.3953 F       1  UNL1       -0.1696
     43 F         140.2876  143.9786  157.2229 F       1  UNL1       -0.1696
     44 F         139.8488  146.9462  157.2082 F       1  UNL1       -0.1696
@<TRIPOS>BOND
     1    11    12    2
     2    12    13   am
     3    13    14    1
     4    14    15   ar
     5    15    16   ar
     6    16    17   ar
     7    17    18   ar
     8    18    19   ar
     9    19    20    1
    10    20    21    1
    11    21    22    1
    12    22    23    1
    13    23    24   am
    14    24    25    2
    15    24    26   am
    16     1    26    1
    17     1     2    1
    18     2     3    1
    19     3     4    1
    20     4    32    1
    21    32    33   ar
    22    33    34   ar
    23    34    35   ar
    24    35    36   ar
    25    36    37    1
    26    36    38   ar
    27    38    39    1
    28     4     5    1
    29     5     6    1
    30     6     7   ar
    31     7    40    1
    32    40    41    1
    33    41    42    1
    34    41    43    1
    35    41    44    1
    36     7     8   ar
    37     8     9   ar
    38     9    10   ar
    39    23    27    1
    40    27    28    1
    41    20    29    1
    42    29    12    1
    43    19    14   ar
    44    28    20    1
    45    10     1    1
    46    38    32   ar
    47    10     6   ar
    48    13    30    1
    49    26    31    1
@<TRIPOS>MOLECULE
*****
 44 49 0 0 0
SMALL
GASTEIGER

@<TRIPOS>ATOM
      1 C         140.9086  139.6269  161.1760 C.3     1  UNL1        0.1299
      2 C         141.7319  138.4497  160.7441 C.3     1  UNL1        0.0278
      3 C         141.9771  137.9391  159.3552 C.3     1  UNL1        0.0085
      4 C         141.4595  138.4795  158.0551 C.3     1  UNL1        0.0473
      5 C         140.5689  139.6639  157.8229 C.3     1  UNL1        0.1113
      6 N         139.9760  140.6006  158.8334 N.ar    1  UNL1       -0.3163
      7 C         139.0933  141.7576  158.4697 C.ar    1  UNL1        0.0658
      8 C         138.6990  142.4562  159.7372 C.ar    1  UNL1        0.1132
      9 N         139.3380  141.7309  160.8842 N.ar    1  UNL1       -0.2280
     10 C         140.1272  140.5841  160.3257 C.ar    1  UNL1        0.1381
     11 O         137.2482  139.2918  171.0116 O.2     1  UNL1       -0.2260
     12 C         138.3881  139.8259  170.1958 C.2     1  UNL1        0.4065
     13 N         139.4797  140.6134  170.8577 N.am    1  UNL1       -0.2352
     14 C         140.6196  141.1475  170.0419 C.ar    1  UNL1        0.1358
     15 N         141.7112  141.9351  170.7038 N.ar    1  UNL1       -0.2291
     16 C         142.8510  142.4691  169.8880 C.ar    1  UNL1        0.1003
     17 C         142.8992  142.2157  168.4103 C.ar    1  UNL1        0.0206
     18 C         141.8076  141.4282  167.7485 C.ar    1  UNL1        0.0034
     19 C         140.6678  140.8941  168.5642 C.ar    1  UNL1        0.0456
     20 C         139.5761  140.1065  167.9024 C.3     1  UNL1        0.1620
     21 C         140.7160  140.6407  167.0866 C.3     1  UNL1        0.0662
     22 C         140.7641  140.3872  165.6089 C.3     1  UNL1        0.0989
     23 N         139.6724  139.5997  164.9471 N.am    1  UNL1       -0.2640
     24 C         139.7206  139.3462  163.4694 C.2     1  UNL1        0.3042
     25 O         138.6290  138.5587  162.8076 O.2     1  UNL1       -0.2526
     26 N         140.8605  139.8803  162.6536 N.am    1  UNL1       -0.2837
     27 C         138.5326  139.0656  165.7629 C.3     1  UNL1        0.0989
     28 C         138.4844  139.3190  167.2405 C.3     1  UNL1        0.0662
     29 O         138.4363  139.5725  168.7182 O.3     1  UNL1       -0.4373
     30 H         139.4481  140.7797  171.8275 H       1  UNL1        0.1596
     31 H         141.5770  140.3972  163.0881 H       1  UNL1        0.1513
     32 C         141.8893  137.7371  156.8245 C.ar    1  UNL1        0.0091
     33 C         143.3373  137.7074  156.4341 C.ar    1  UNL1       -0.0019
     34 C         143.7673  136.9651  155.2037 C.ar    1  UNL1        0.0021
     35 C         142.7492  136.2526  154.3636 C.ar    1  UNL1        0.0319
     36 C         141.3012  136.2823  154.7539 C.ar    1  UNL1        0.1671
     37 F         140.2831  135.5697  153.9138 F       1  UNL1       -0.2018
     38 C         140.8712  137.0246  155.9844 C.ar    1  UNL1        0.1634
     39 F         139.4233  137.0544  156.3748 F       1  UNL1       -0.2021
     40 C         138.6779  142.1475  157.0822 C.3     1  UNL1        0.1485
     41 C         137.2684  141.9110  156.6269 C.3     1  UNL1        0.4032
     42 F         135.8588  141.6745  156.1716 F       1  UNL1       -0.1696
     43 F         137.0968  143.3827  156.3933 F       1  UNL1       -0.1696
     44 F         137.4400  140.4393  156.8604 F       1  UNL1       -0.1696
@<TRIPOS>BOND
     1    11    12    2
     2    12    13   am
     3    13    14    1
     4    14    15   ar
     5    15    16   ar
     6    16    17   ar
     7    17    18   ar
     8    18    19   ar
     9    19    20    1
    10    20    21    1
    11    21    22    1
    12    22    23    1
    13    23    24   am
    14    24    25    2
    15    24    26   am
    16     1    26    1
    17     1     2    1
    18     2     3    1
    19     3     4    1
    20     4    32    1
    21    32    33   ar
    22    33    34   ar
    23    34    35   ar
    24    35    36   ar
    25    36    37    1
    26    36    38   ar
    27    38    39    1
    28     4     5    1
    29     5     6    1
    30     6     7   ar
    31     7    40    1
    32    40    41    1
    33    41    42    1
    34    41    43    1
    35    41    44    1
    36     7     8   ar
    37     8     9   ar
    38     9    10   ar
    39    23    27    1
    40    27    28    1
    41    20    29    1
    42    29    12    1
    43    19    14   ar
    44    28    20    1
    45    10     1    1
    46    38    32   ar
    47    10     6   ar
    48    13    30    1
    49    26    31    1
@<TRIPOS>MOLECULE
*****
 44 49 0 0 0
SMALL
GASTEIGER

@<TRIPOS>ATOM
      1 C         139.8442  141.4019  161.4313 C.3     1  UNL1        0.1299
      2 C         139.0336  142.5665  160.9448 C.3     1  UNL1        0.0278
      3 C         138.5621  142.8607  159.5515 C.3     1  UNL1        0.0085
      4 C         138.7846  142.0631  158.3008 C.3     1  UNL1        0.0473
      5 C         139.5337  140.7742  158.1344 C.3     1  UNL1        0.1113
      6 N         140.2452  139.9646  159.1777 N.ar    1  UNL1       -0.3163
      7 C         140.9632  138.6816  158.8804 C.ar    1  UNL1        0.0658
      8 C         141.5451  138.1680  160.1640 C.ar    1  UNL1        0.1132
      9 N         141.1868  139.1336  161.2545 N.ar    1  UNL1       -0.2280
     10 C         140.3834  140.2440  160.6449 C.ar    1  UNL1        0.1381
     11 O         145.2462  143.1781  170.2582 O.2     1  UNL1       -0.2260
     12 C         143.9667  142.5733  169.7610 C.2     1  UNL1        0.4065
     13 N         143.0000  141.9609  170.7307 N.am    1  UNL1       -0.2352
     14 C         141.7206  141.3560  170.2334 C.ar    1  UNL1        0.1358
     15 N         140.7539  140.7436  171.2032 N.ar    1  UNL1       -0.2291
     16 C         139.4745  140.1387  170.7059 C.ar    1  UNL1        0.1003
     17 C         139.1618  140.1464  169.2389 C.ar    1  UNL1        0.0206
     18 C         140.1285  140.7588  168.2691 C.ar    1  UNL1        0.0034
     19 C         141.4078  141.3636  168.7664 C.ar    1  UNL1        0.0456
     20 C         142.3746  141.9761  167.7967 C.3     1  UNL1        0.1620
     21 C         141.0951  141.3713  167.2994 C.3     1  UNL1        0.0662
     22 C         140.7824  141.3789  165.8324 C.3     1  UNL1        0.0989
     23 N         141.7491  141.9914  164.8626 N.am    1  UNL1       -0.2640
     24 C         141.4364  141.9991  163.3956 C.2     1  UNL1        0.3042
     25 O         142.4031  142.6115  162.4259 O.2     1  UNL1       -0.2526
     26 N         140.1569  141.3942  162.8983 N.am    1  UNL1       -0.2837
     27 C         143.0285  142.5962  165.3599 C.3     1  UNL1        0.0989
     28 C         143.3412  142.5886  166.8269 C.3     1  UNL1        0.0662
     29 O         143.6540  142.5809  168.2940 O.3     1  UNL1       -0.4373
     30 H         143.2053  141.9558  171.6936 H       1  UNL1        0.1596
     31 H         139.5225  140.9922  163.5348 H       1  UNL1        0.1513
     32 C         138.1778  142.6292  157.0513 C.ar    1  UNL1        0.0091
     33 C         138.8127  143.8096  156.3775 C.ar    1  UNL1       -0.0019
     34 C         138.2060  144.3758  155.1281 C.ar    1  UNL1        0.0021
     35 C         136.9644  143.7617  154.5523 C.ar    1  UNL1        0.0319
     36 C         136.3296  142.5815  155.2260 C.ar    1  UNL1        0.1671
     37 F         135.0881  141.9674  154.6502 F       1  UNL1       -0.2018
     38 C         136.9363  142.0152  156.4755 C.ar    1  UNL1        0.1634
     39 F         136.3016  140.8349  157.1492 F       1  UNL1       -0.2021
     40 C         141.0789  138.0271  157.5358 C.3     1  UNL1        0.1485
     41 C         142.3992  137.4819  157.0781 C.3     1  UNL1        0.4032
     42 F         143.7197  136.9367  156.6204 F       1  UNL1       -0.1696
     43 F         141.7683  136.1392  156.8570 F       1  UNL1       -0.1696
     44 F         143.0303  138.8246  157.2992 F       1  UNL1       -0.1696
@<TRIPOS>BOND
     1    11    12    2
     2    12    13   am
     3    13    14    1
     4    14    15   ar
     5    15    16   ar
     6    16    17   ar
     7    17    18   ar
     8    18    19   ar
     9    19    20    1
    10    20    21    1
    11    21    22    1
    12    22    23    1
    13    23    24   am
    14    24    25    2
    15    24    26   am
    16     1    26    1
    17     1     2    1
    18     2     3    1
    19     3     4    1
    20     4    32    1
    21    32    33   ar
    22    33    34   ar
    23    34    35   ar
    24    35    36   ar
    25    36    37    1
    26    36    38   ar
    27    38    39    1
    28     4     5    1
    29     5     6    1
    30     6     7   ar
    31     7    40    1
    32    40    41    1
    33    41    42    1
    34    41    43    1
    35    41    44    1
    36     7     8   ar
    37     8     9   ar
    38     9    10   ar
    39    23    27    1
    40    27    28    1
    41    20    29    1
    42    29    12    1
    43    19    14   ar
    44    28    20    1
    45    10     1    1
    46    38    32   ar
    47    10     6   ar
    48    13    30    1
    49    26    31    1
@<TRIPOS>MOLECULE
*****
 44 49 0 0 0
SMALL
GASTEIGER

@<TRIPOS>ATOM
      1 C         142.5523  141.9818  161.2166 C.3     1  UNL1        0.1299
      2 C         143.6502  141.0689  160.7571 C.3     1  UNL1        0.0278
      3 C         144.4555  141.1368  159.4933 C.3     1  UNL1        0.0085
      4 C         144.3616  142.1344  158.3770 C.3     1  UNL1        0.0473
      5 C         143.4393  143.3104  158.2487 C.3     1  UNL1        0.1113
      6 N         142.3832  143.7793  159.2052 N.ar    1  UNL1       -0.3163
      7 C         141.5198  144.9809  158.9586 C.ar    1  UNL1        0.0658
      8 C         140.5915  145.1323  160.1270 C.ar    1  UNL1        0.1132
      9 N         140.8811  144.0242  161.0957 N.ar    1  UNL1       -0.2280
     10 C         141.9884  143.1880  160.5260 C.ar    1  UNL1        0.1381
     11 O         141.0689  142.1710  171.6096 O.2     1  UNL1       -0.2260
     12 C         140.5377  141.5445  170.3544 C.2     1  UNL1        0.4065
     13 N         139.3911  140.5800  170.4248 N.am    1  UNL1       -0.2352
     14 C         138.8598  139.9534  169.1697 C.ar    1  UNL1        0.1358
     15 N         137.7133  138.9889  169.2401 N.ar    1  UNL1       -0.2291
     16 C         137.1821  138.3625  167.9850 C.ar    1  UNL1        0.1003
     17 C         137.7975  138.7005  166.6595 C.ar    1  UNL1        0.0206
     18 C         138.9441  139.6651  166.5891 C.ar    1  UNL1        0.0034
     19 C         139.4753  140.2915  167.8442 C.ar    1  UNL1        0.0456
     20 C         140.6219  141.2561  167.7738 C.3     1  UNL1        0.1620
     21 C         140.0907  140.6296  166.5187 C.3     1  UNL1        0.0662
     22 C         140.7061  140.9676  165.1931 C.3     1  UNL1        0.0989
     23 N         141.8527  141.9322  165.1228 N.am    1  UNL1       -0.2640
     24 C         142.4681  142.2703  163.7973 C.2     1  UNL1        0.3042
     25 O         143.6147  143.2348  163.7269 O.2     1  UNL1       -0.2526
     26 N         141.9369  141.6438  162.5421 N.am    1  UNL1       -0.2837
     27 C         142.3839  142.5587  166.3779 C.3     1  UNL1        0.0989
     28 C         141.7685  142.2206  167.7034 C.3     1  UNL1        0.0662
     29 O         141.1531  141.8825  169.0289 O.3     1  UNL1       -0.4373
     30 H         138.9872  140.3581  171.2948 H       1  UNL1        0.1596
     31 H         141.1843  141.0107  162.5883 H       1  UNL1        0.1513
     32 C         145.3162  141.9287  157.2384 C.ar    1  UNL1        0.0091
     33 C         146.6360  142.6415  157.2282 C.ar    1  UNL1       -0.0019
     34 C         147.5907  142.4358  156.0897 C.ar    1  UNL1        0.0021
     35 C         147.2256  141.5173  154.9614 C.ar    1  UNL1        0.0319
     36 C         145.9059  140.8045  154.9716 C.ar    1  UNL1        0.1671
     37 F         145.5408  139.8860  153.8433 F       1  UNL1       -0.2018
     38 C         144.9511  141.0102  156.1101 C.ar    1  UNL1        0.1634
     39 F         143.6315  140.2974  156.1204 F       1  UNL1       -0.2021
     40 C         141.5751  145.8743  157.7550 C.3     1  UNL1        0.1485
     41 C         140.4545  145.8597  156.7580 C.3     1  UNL1        0.4032
     42 F         139.3337  145.8452  155.7610 F       1  UNL1       -0.1696
     43 F         141.1423  144.7629  156.0007 F       1  UNL1       -0.1696
     44 F         139.7665  146.9566  157.5153 F       1  UNL1       -0.1696
@<TRIPOS>BOND
     1    11    12    2
     2    12    13   am
     3    13    14    1
     4    14    15   ar
     5    15    16   ar
     6    16    17   ar
     7    17    18   ar
     8    18    19   ar
     9    19    20    1
    10    20    21    1
    11    21    22    1
    12    22    23    1
    13    23    24   am
    14    24    25    2
    15    24    26   am
    16     1    26    1
    17     1     2    1
    18     2     3    1
    19     3     4    1
    20     4    32    1
    21    32    33   ar
    22    33    34   ar
    23    34    35   ar
    24    35    36   ar
    25    36    37    1
    26    36    38   ar
    27    38    39    1
    28     4     5    1
    29     5     6    1
    30     6     7   ar
    31     7    40    1
    32    40    41    1
    33    41    42    1
    34    41    43    1
    35    41    44    1
    36     7     8   ar
    37     8     9   ar
    38     9    10   ar
    39    23    27    1
    40    27    28    1
    41    20    29    1
    42    29    12    1
    43    19    14   ar
    44    28    20    1
    45    10     1    1
    46    38    32   ar
    47    10     6   ar
    48    13    30    1
    49    26    31    1
@<TRIPOS>MOLECULE
*****
 44 49 0 0 0
SMALL
GASTEIGER

@<TRIPOS>ATOM
      1 C         139.9250  142.2601  162.8472 C.3     1  UNL1        0.1299
      2 C         140.5340  143.3611  163.6640 C.3     1  UNL1        0.0278
      3 C         140.8808  143.3608  165.1234 C.3     1  UNL1        0.0085
      4 C         140.7043  142.2594  166.1264 C.3     1  UNL1        0.0473
      5 C         140.1373  140.8864  165.9177 C.3     1  UNL1        0.1113
      6 N         139.6069  140.2757  164.6545 N.ar    1  UNL1       -0.3163
      7 C         139.0625  138.8801  164.5767 C.ar    1  UNL1        0.0658
      8 C         138.6316  138.6290  163.1620 C.ar    1  UNL1        0.1132
      9 N         138.9097  139.8693  162.3656 N.ar    1  UNL1       -0.2280
     10 C         139.5124  140.8871  163.2880 C.ar    1  UNL1        0.1381
     11 O         141.8832  146.1458  153.2912 O.2     1  UNL1       -0.2260
     12 C         140.8532  145.3734  154.0611 C.2     1  UNL1        0.4065
     13 N         139.5970  144.9147  153.3817 N.am    1  UNL1       -0.2352
     14 C         138.5671  144.1423  154.1516 C.ar    1  UNL1        0.1358
     15 N         137.3109  143.6836  153.4722 N.ar    1  UNL1       -0.2291
     16 C         136.2811  142.9113  154.2421 C.ar    1  UNL1        0.1003
     17 C         136.5074  142.5976  155.6914 C.ar    1  UNL1        0.0206
     18 C         137.7636  143.0562  156.3708 C.ar    1  UNL1        0.0034
     19 C         138.7934  143.8286  155.6009 C.ar    1  UNL1        0.0456
     20 C         140.0497  144.2873  156.2802 C.3     1  UNL1        0.1620
     21 C         139.0197  143.5149  157.0501 C.3     1  UNL1        0.0662
     22 C         139.2461  143.2012  158.4994 C.3     1  UNL1        0.0989
     23 N         140.5023  143.6599  159.1788 N.am    1  UNL1       -0.2640
     24 C         140.7286  143.3462  160.6280 C.2     1  UNL1        0.3042
     25 O         141.9848  143.8049  161.3074 O.2     1  UNL1       -0.2526
     26 N         139.6987  142.5738  161.3979 N.am    1  UNL1       -0.2837
     27 C         141.5322  144.4323  158.4089 C.3     1  UNL1        0.0989
     28 C         141.3059  144.7460  156.9596 C.3     1  UNL1        0.0662
     29 O         141.0795  145.0597  155.5103 O.3     1  UNL1       -0.4373
     30 H         139.4485  145.1206  152.4305 H       1  UNL1        0.1596
     31 H         138.8742  142.2728  160.9520 H       1  UNL1        0.1513
     32 C         141.1542  142.5726  167.5226 C.ar    1  UNL1        0.0091
     33 C         140.2093  143.2283  168.4857 C.ar    1  UNL1       -0.0019
     34 C         140.6592  143.5415  169.8819 C.ar    1  UNL1        0.0021
     35 C         142.0538  143.1990  170.3151 C.ar    1  UNL1        0.0319
     36 C         142.9986  142.5433  169.3522 C.ar    1  UNL1        0.1671
     37 F         144.3932  142.2007  169.7854 F       1  UNL1       -0.2018
     38 C         142.5488  142.2300  167.9559 C.ar    1  UNL1        0.1634
     39 F         143.4935  141.5744  166.9929 F       1  UNL1       -0.2021
     40 C         138.9660  137.9067  165.7137 C.3     1  UNL1        0.1485
     41 C         137.7304  137.8656  166.5631 C.3     1  UNL1        0.4032
     42 F         136.4947  137.8246  167.4125 F       1  UNL1       -0.1696
     43 F         137.8057  136.3680  166.6004 F       1  UNL1       -0.1696
     44 F         137.6551  139.3632  166.5258 F       1  UNL1       -0.1696
@<TRIPOS>BOND
     1    11    12    2
     2    12    13   am
     3    13    14    1
     4    14    15   ar
     5    15    16   ar
     6    16    17   ar
     7    17    18   ar
     8    18    19   ar
     9    19    20    1
    10    20    21    1
    11    21    22    1
    12    22    23    1
    13    23    24   am
    14    24    25    2
    15    24    26   am
    16     1    26    1
    17     1     2    1
    18     2     3    1
    19     3     4    1
    20     4    32    1
    21    32    33   ar
    22    33    34   ar
    23    34    35   ar
    24    35    36   ar
    25    36    37    1
    26    36    38   ar
    27    38    39    1
    28     4     5    1
    29     5     6    1
    30     6     7   ar
    31     7    40    1
    32    40    41    1
    33    41    42    1
    34    41    43    1
    35    41    44    1
    36     7     8   ar
    37     8     9   ar
    38     9    10   ar
    39    23    27    1
    40    27    28    1
    41    20    29    1
    42    29    12    1
    43    19    14   ar
    44    28    20    1
    45    10     1    1
    46    38    32   ar
    47    10     6   ar
    48    13    30    1
    49    26    31    1
@<TRIPOS>MOLECULE
*****
 44 49 0 0 0
SMALL
GASTEIGER

@<TRIPOS>ATOM
      1 C         142.4037  141.3117  160.9873 C.3     1  UNL1        0.1299
      2 C         143.3970  142.3173  160.4851 C.3     1  UNL1        0.0278
      3 C         143.7613  142.6444  159.0673 C.3     1  UNL1        0.0085
      4 C         143.2222  142.0467  157.8014 C.3     1  UNL1        0.0473
      5 C         142.1857  140.9744  157.6408 C.3     1  UNL1        0.1113
      6 N         141.4324  140.2348  158.7064 N.ar    1  UNL1       -0.3163
      7 C         140.4124  139.1749  158.4128 C.ar    1  UNL1        0.0658
      8 C         139.8790  138.6699  159.7207 C.ar    1  UNL1        0.1132
      9 N         140.5693  139.4178  160.8226 N.ar    1  UNL1       -0.2280
     10 C         141.5294  140.3849  160.1958 C.ar    1  UNL1        0.1381
     11 O         143.5508  137.3997  170.6636 O.2     1  UNL1       -0.2260
     12 C         142.9400  138.5524  169.9231 C.2     1  UNL1        0.4065
     13 N         142.1922  139.6142  170.6736 N.am    1  UNL1       -0.2352
     14 C         141.5813  140.7669  169.9331 C.ar    1  UNL1        0.1358
     15 N         140.8335  141.8287  170.6835 N.ar    1  UNL1       -0.2291
     16 C         140.2227  142.9814  169.9430 C.ar    1  UNL1        0.1003
     17 C         140.3598  143.0721  168.4521 C.ar    1  UNL1        0.0206
     18 C         141.1076  142.0103  167.7016 C.ar    1  UNL1        0.0034
     19 C         141.7184  140.8577  168.4421 C.ar    1  UNL1        0.0456
     20 C         142.4663  139.7958  167.6917 C.3     1  UNL1        0.1620
     21 C         141.8555  140.9485  166.9512 C.3     1  UNL1        0.0662
     22 C         141.9925  141.0393  165.4602 C.3     1  UNL1        0.0989
     23 N         142.7404  139.9774  164.7097 N.am    1  UNL1       -0.2640
     24 C         142.8775  140.0682  163.2188 C.2     1  UNL1        0.3042
     25 O         143.6253  139.0064  162.4683 O.2     1  UNL1       -0.2526
     26 N         142.2666  141.2209  162.4783 N.am    1  UNL1       -0.2837
     27 C         143.3512  138.8248  165.4502 C.3     1  UNL1        0.0989
     28 C         143.2141  138.7340  166.9412 C.3     1  UNL1        0.0662
     29 O         143.0770  138.6432  168.4322 O.3     1  UNL1       -0.4373
     30 H         142.1022  139.5546  171.6522 H       1  UNL1        0.1596
     31 H         141.7758  141.9178  162.9708 H       1  UNL1        0.1513
     32 C         143.7954  142.5939  156.5278 C.ar    1  UNL1        0.0091
     33 C         142.9985  143.5582  155.7001 C.ar    1  UNL1       -0.0019
     34 C         143.5716  144.1054  154.4266 C.ar    1  UNL1        0.0021
     35 C         144.9417  143.6883  153.9806 C.ar    1  UNL1        0.0319
     36 C         145.7386  142.7239  154.8082 C.ar    1  UNL1        0.1671
     37 F         147.1087  142.3068  154.3622 F       1  UNL1       -0.2018
     38 C         145.1655  142.1767  156.0818 C.ar    1  UNL1        0.1634
     39 F         145.9623  141.2124  156.9094 F       1  UNL1       -0.2021
     40 C         139.9984  138.7028  157.0506 C.3     1  UNL1        0.1485
     41 C         140.4457  137.3598  156.5543 C.3     1  UNL1        0.4032
     42 F         140.8930  136.0168  156.0579 F       1  UNL1       -0.1696
     43 F         141.8703  137.7252  156.8491 F       1  UNL1       -0.1696
     44 F         139.0211  136.9944  156.2594 F       1  UNL1       -0.1696
@<TRIPOS>BOND
     1    11    12    2
     2    12    13   am
     3    13    14    1
     4    14    15   ar
     5    15    16   ar
     6    16    17   ar
     7    17    18   ar
     8    18    19   ar
     9    19    20    1
    10    20    21    1
    11    21    22    1
    12    22    23    1
    13    23    24   am
    14    24    25    2
    15    24    26   am
    16     1    26    1
    17     1     2    1
    18     2     3    1
    19     3     4    1
    20     4    32    1
    21    32    33   ar
    22    33    34   ar
    23    34    35   ar
    24    35    36   ar
    25    36    37    1
    26    36    38   ar
    27    38    39    1
    28     4     5    1
    29     5     6    1
    30     6     7   ar
    31     7    40    1
    32    40    41    1
    33    41    42    1
    34    41    43    1
    35    41    44    1
    36     7     8   ar
    37     8     9   ar
    38     9    10   ar
    39    23    27    1
    40    27    28    1
    41    20    29    1
    42    29    12    1
    43    19    14   ar
    44    28    20    1
    45    10     1    1
    46    38    32   ar
    47    10     6   ar
    48    13    30    1
    49    26    31    1
@<TRIPOS>MOLECULE
*****
 44 49 0 0 0
SMALL
GASTEIGER

@<TRIPOS>ATOM
      1 C         140.0632  139.7781  160.5983 C.3     1  UNL1        0.1299
      2 C         138.9090  140.4738  159.9396 C.3     1  UNL1        0.0278
      3 C         138.5054  140.4530  158.4950 C.3     1  UNL1        0.0085
      4 C         139.1563  139.7312  157.3524 C.3     1  UNL1        0.0473
      5 C         140.3716  138.8522  157.3722 C.3     1  UNL1        0.1113
      6 N         141.2361  138.4777  158.5395 N.ar    1  UNL1       -0.3163
      7 C         142.4342  137.5823  158.4267 C.ar    1  UNL1        0.0658
      8 C         143.0374  137.4410  159.7928 C.ar    1  UNL1        0.1132
      9 N         142.2121  138.2491  160.7498 N.ar    1  UNL1       -0.2280
     10 C         141.0988  138.8898  159.9752 C.ar    1  UNL1        0.1381
     11 O         137.6153  139.2965  170.7977 O.2     1  UNL1       -0.2260
     12 C         138.6589  139.8271  169.8598 C.2     1  UNL1        0.4065
     13 N         139.8390  140.5797  170.3992 N.am    1  UNL1       -0.2352
     14 C         140.8826  141.1104  169.4614 C.ar    1  UNL1        0.1358
     15 N         142.0626  141.8630  170.0007 N.ar    1  UNL1       -0.2291
     16 C         143.1061  142.3935  169.0629 C.ar    1  UNL1        0.1003
     17 C         142.9696  142.1715  167.5857 C.ar    1  UNL1        0.0206
     18 C         141.7895  141.4189  167.0464 C.ar    1  UNL1        0.0034
     19 C         140.7460  140.8883  167.9842 C.ar    1  UNL1        0.0456
     20 C         139.5658  140.1357  167.4448 C.3     1  UNL1        0.1620
     21 C         140.6094  140.6663  166.5070 C.3     1  UNL1        0.0662
     22 C         140.4729  140.4442  165.0298 C.3     1  UNL1        0.0989
     23 N         139.2927  139.6916  164.4905 N.am    1  UNL1       -0.2640
     24 C         139.1561  139.4695  163.0133 C.2     1  UNL1        0.3042
     25 O         137.9761  138.7169  162.4740 O.2     1  UNL1       -0.2526
     26 N         140.1997  140.0002  162.0755 N.am    1  UNL1       -0.2837
     27 C         138.2492  139.1610  165.4283 C.3     1  UNL1        0.0989
     28 C         138.3858  139.3830  166.9055 C.3     1  UNL1        0.0662
     29 O         138.5223  139.6051  168.3827 O.3     1  UNL1       -0.4373
     30 H         139.9286  140.7255  171.3687 H       1  UNL1        0.1596
     31 H         140.9743  140.4941  162.4295 H       1  UNL1        0.1513
     32 C         138.5060  139.9127  156.0130 C.ar    1  UNL1        0.0091
     33 C         138.1514  141.2884  155.5316 C.ar    1  UNL1       -0.0019
     34 C         137.5011  141.4699  154.1923 C.ar    1  UNL1        0.0021
     35 C         137.2052  140.2757  153.3342 C.ar    1  UNL1        0.0319
     36 C         137.5597  138.9000  153.8155 C.ar    1  UNL1        0.1671
     37 F         137.2638  137.7058  152.9574 F       1  UNL1       -0.2018
     38 C         138.2101  138.7184  155.1549 C.ar    1  UNL1        0.1634
     39 F         138.5646  137.3428  155.6363 F       1  UNL1       -0.2021
     40 C         142.9403  136.9408  157.1689 C.3     1  UNL1        0.1485
     41 C         142.5093  135.5495  156.8107 C.3     1  UNL1        0.4032
     42 F         142.0783  134.1580  156.4524 F       1  UNL1       -0.1696
     43 F         141.3429  136.1066  156.0497 F       1  UNL1       -0.1696
     44 F         143.6757  134.9923  157.5716 F       1  UNL1       -0.1696
@<TRIPOS>BOND
     1    11    12    2
     2    12    13   am
     3    13    14    1
     4    14    15   ar
     5    15    16   ar
     6    16    17   ar
     7    17    18   ar
     8    18    19   ar
     9    19    20    1
    10    20    21    1
    11    21    22    1
    12    22    23    1
    13    23    24   am
    14    24    25    2
    15    24    26   am
    16     1    26    1
    17     1     2    1
    18     2     3    1
    19     3     4    1
    20     4    32    1
    21    32    33   ar
    22    33    34   ar
    23    34    35   ar
    24    35    36   ar
    25    36    37    1
    26    36    38   ar
    27    38    39    1
    28     4     5    1
    29     5     6    1
    30     6     7   ar
    31     7    40    1
    32    40    41    1
    33    41    42    1
    34    41    43    1
    35    41    44    1
    36     7     8   ar
    37     8     9   ar
    38     9    10   ar
    39    23    27    1
    40    27    28    1
    41    20    29    1
    42    29    12    1
    43    19    14   ar
    44    28    20    1
    45    10     1    1
    46    38    32   ar
    47    10     6   ar
    48    13    30    1
    49    26    31    1
