@<TRIPOS>MOLECULE
*****
 36 39 0 0 0
SMALL
GASTEIGER

@<TRIPOS>ATOM
      1 C         139.6444  141.0762  160.2491 C.3     1  UNL1        0.0545
      2 C         139.3688  139.7839  159.5391 C.3     1  UNL1        0.0162
      3 C         140.5152  138.8543  159.8067 C.3     1  UNL1        0.0100
      4 C         141.4993  139.5720  160.6821 C.3     1  UNL1        0.0704
      5 C         140.9612  140.9452  160.9555 C.3     1  UNL1        0.0243
      6 C         142.6461  140.0224  161.5377 C.2     1  UNL1        0.2248
      7 O         143.9429  140.4268  160.9016 O.2     1  UNL1       -0.2749
      8 N         142.4961  140.0683  163.0295 N.am    1  UNL1       -0.2760
      9 C         141.1992  139.6638  163.6656 C.3     1  UNL1        0.1149
     10 C         141.0491  139.7097  165.1573 C.3     1  UNL1        0.1151
     11 N         142.1958  140.1601  166.0130 N.pl3   1  UNL1       -0.2747
     12 C         143.4927  140.5646  165.3769 C.3     1  UNL1        0.1151
     13 C         143.6428  140.5187  163.8852 C.3     1  UNL1        0.1149
     14 C         142.0457  140.2060  167.5048 C.ar    1  UNL1        0.2202
     15 N         142.7830  139.2217  168.3635 N.ar    1  UNL1       -0.2121
     16 C         142.6329  139.2676  169.8552 C.ar    1  UNL1        0.1033
     17 C         141.7454  140.2979  170.4883 C.ar    1  UNL1        0.0439
     18 C         141.0081  141.2823  169.6296 C.ar    1  UNL1        0.1570
     19 N         141.1582  141.2364  168.1379 N.ar    1  UNL1       -0.2096
     20 C         140.1206  142.3126  170.2628 C.3     1  UNL1        0.4350
     21 F         139.2331  143.3429  170.8959 F       1  UNL1       -0.1644
     22 F         138.9552  141.3742  170.1563 F       1  UNL1       -0.1644
     23 F         141.2860  143.2510  170.3692 F       1  UNL1       -0.1644
     24 C         142.2772  138.2930  160.5875 C.3     1  UNL1        0.0082
     25 C         142.8014  137.8303  159.2605 C.3     1  UNL1        0.0005
     26 C         142.5580  137.6136  161.2419 C.3     1  UNL1        0.0005
     27 N         138.7588  142.2868  160.2522 N.3     1  UNL1       -0.2975
     28 H         138.9760  142.8127  159.4056 H       1  UNL1        0.1232
     29 C         137.9897  143.0281  162.6205 C.3     1  UNL1        0.1591
     30 C         138.0517  143.9998  163.7615 C.3     1  UNL1        0.1729
     31 O         138.9448  145.2019  163.6753 O.3     1  UNL1       -0.3511
     32 C         139.7759  145.4322  162.4481 C.3     1  UNL1        0.1437
     33 C         139.7139  144.4606  161.3071 C.3     1  UNL1        0.0503
     34 C         138.8208  143.2585  161.3933 C.3     1  UNL1        0.0865
     35 C         137.6169  140.5454  163.2890 C.3     1  UNL1        0.1742
     36 O         137.0966  141.8261  162.7067 O.3     1  UNL1       -0.3496
@<TRIPOS>BOND
     1    35    36    1
     2    29    36    1
     3    29    30    1
     4    30    31    1
     5    31    32    1
     6    32    33    1
     7    33    34    1
     8    34    27    1
     9     1    27    1
    10     1     2    1
    11     2     3    1
    12     3     4    1
    13     4     6    1
    14     6     7    2
    15     6     8   am
    16     8     9    1
    17     9    10    1
    18    10    11    1
    19    11    14    1
    20    14    15   ar
    21    15    16   ar
    22    16    17   ar
    23    17    18   ar
    24    18    20    1
    25    20    21    1
    26    20    22    1
    27    20    23    1
    28    18    19   ar
    29    11    12    1
    30    12    13    1
    31     4    24    1
    32    24    25    1
    33    24    26    1
    34     4     5    1
    35    34    29    1
    36     5     1    1
    37    13     8    1
    38    19    14   ar
    39    27    28    1
@<TRIPOS>MOLECULE
*****
 36 39 0 0 0
SMALL
GASTEIGER

@<TRIPOS>ATOM
      1 C         141.3398  141.6387  164.3784 C.3     1  UNL1        0.0545
      2 C         141.6290  140.7948  165.5843 C.3     1  UNL1        0.0162
      3 C         141.0289  139.4391  165.3562 C.3     1  UNL1        0.0100
      4 C         140.3687  139.4452  164.0093 C.3     1  UNL1        0.0704
      5 C         140.5609  140.8045  163.4050 C.3     1  UNL1        0.0243
      6 C         139.6364  139.1543  162.7329 C.2     1  UNL1        0.2248
      7 O         138.1381  139.2148  162.6974 O.2     1  UNL1       -0.2749
      8 N         140.4025  138.8031  161.4920 N.am    1  UNL1       -0.2760
      9 C         141.9009  138.7426  161.5276 C.3     1  UNL1        0.1149
     10 C         142.6670  138.3914  160.2868 C.3     1  UNL1        0.1151
     11 N         141.9348  138.1006  159.0103 N.pl3   1  UNL1       -0.2747
     12 C         140.4364  138.1610  158.9748 C.3     1  UNL1        0.1151
     13 C         139.6703  138.5122  160.2156 C.3     1  UNL1        0.1149
     14 C         142.7009  137.7493  157.7695 C.ar    1  UNL1        0.2202
     15 N         143.3493  138.8306  156.9571 N.ar    1  UNL1       -0.2121
     16 C         144.1155  138.4794  155.7162 C.ar    1  UNL1        0.1033
     17 C         144.2331  137.0467  155.2879 C.ar    1  UNL1        0.0439
     18 C         143.5847  135.9653  156.1003 C.ar    1  UNL1        0.1570
     19 N         142.8186  136.3165  157.3412 N.ar    1  UNL1       -0.2096
     20 C         143.7024  134.5326  155.6719 C.3     1  UNL1        0.4350
     21 F         143.8201  133.0999  155.2435 F       1  UNL1       -0.1644
     22 F         143.1063  134.8817  154.3405 F       1  UNL1       -0.1644
     23 F         144.2985  134.1834  157.0034 F       1  UNL1       -0.1644
     24 C         140.0236  138.0250  164.3467 C.3     1  UNL1        0.0082
     25 C         141.0900  136.9703  164.3329 C.3     1  UNL1        0.0005
     26 C         139.1909  137.5655  164.6001 C.3     1  UNL1        0.0005
     27 N         141.7563  143.0661  164.1807 N.3     1  UNL1       -0.2975
     28 H         141.8075  143.4890  165.1075 H       1  UNL1        0.1232
     29 C         141.5185  144.6308  162.1203 C.3     1  UNL1        0.1591
     30 C         140.6842  145.5449  161.2728 C.3     1  UNL1        0.1729
     31 O         139.2534  145.8084  161.6380 O.3     1  UNL1       -0.3511
     32 C         138.6569  145.1578  162.8507 C.3     1  UNL1        0.1437
     33 C         139.4912  144.2437  163.6983 C.3     1  UNL1        0.0503
     34 C         140.9220  143.9802  163.3330 C.3     1  UNL1        0.0865
     35 C         143.3024  143.1722  160.9203 C.3     1  UNL1        0.1742
     36 O         142.9493  144.3673  161.7551 O.3     1  UNL1       -0.3496
@<TRIPOS>BOND
     1    35    36    1
     2    29    36    1
     3    29    30    1
     4    30    31    1
     5    31    32    1
     6    32    33    1
     7    33    34    1
     8    34    27    1
     9     1    27    1
    10     1     2    1
    11     2     3    1
    12     3     4    1
    13     4     6    1
    14     6     7    2
    15     6     8   am
    16     8     9    1
    17     9    10    1
    18    10    11    1
    19    11    14    1
    20    14    15   ar
    21    15    16   ar
    22    16    17   ar
    23    17    18   ar
    24    18    20    1
    25    20    21    1
    26    20    22    1
    27    20    23    1
    28    18    19   ar
    29    11    12    1
    30    12    13    1
    31     4    24    1
    32    24    25    1
    33    24    26    1
    34     4     5    1
    35    34    29    1
    36     5     1    1
    37    13     8    1
    38    19    14   ar
    39    27    28    1
@<TRIPOS>MOLECULE
*****
 36 39 0 0 0
SMALL
GASTEIGER

@<TRIPOS>ATOM
      1 C         140.0289  142.1874  164.5749 C.3     1  UNL1        0.0545
      2 C         140.5093  143.1228  165.6446 C.3     1  UNL1        0.0162
      3 C         141.8355  143.6765  165.2147 C.3     1  UNL1        0.0100
      4 C         142.1746  143.0832  163.8794 C.3     1  UNL1        0.0704
      5 C         141.0581  142.1629  163.4840 C.3     1  UNL1        0.0243
      6 C         142.7733  142.6641  162.5695 C.2     1  UNL1        0.2248
      7 O         143.8753  141.6468  162.5398 O.2     1  UNL1       -0.2749
      8 N         142.2700  143.2621  161.2893 N.am    1  UNL1       -0.2760
      9 C         141.1680  144.2793  161.3190 C.3     1  UNL1        0.1149
     10 C         140.6647  144.8774  160.0388 C.3     1  UNL1        0.1151
     11 N         141.2633  144.4583  158.7288 N.pl3   1  UNL1       -0.2747
     12 C         142.3653  143.4411  158.6991 C.3     1  UNL1        0.1151
     13 C         142.8686  142.8430  159.9793 C.3     1  UNL1        0.1149
     14 C         140.7600  145.0564  157.4486 C.ar    1  UNL1        0.2202
     15 N         140.9609  144.3303  156.1516 N.ar    1  UNL1       -0.2121
     16 C         140.4575  144.9284  154.8714 C.ar    1  UNL1        0.1033
     17 C         139.7532  146.2527  154.8883 C.ar    1  UNL1        0.0439
     18 C         139.5523  146.9788  156.1854 C.ar    1  UNL1        0.1570
     19 N         140.0556  146.3807  157.4656 N.ar    1  UNL1       -0.2096
     20 C         138.8480  148.3031  156.2022 C.3     1  UNL1        0.4350
     21 F         138.1437  149.6273  156.2190 F       1  UNL1       -0.1644
     22 F         139.0342  148.4210  154.7185 F       1  UNL1       -0.1644
     23 F         138.6617  148.1852  157.6859 F       1  UNL1       -0.1644
     24 C         143.4163  143.9159  164.0010 C.3     1  UNL1        0.0082
     25 C         144.4842  143.5314  164.9817 C.3     1  UNL1        0.0005
     26 C         143.7387  144.7319  163.5551 C.3     1  UNL1        0.0005
     27 N         138.7447  141.4124  164.5930 N.3     1  UNL1       -0.2975
     28 H         138.5683  141.1574  165.5648 H       1  UNL1        0.1232
     29 C         137.8598  140.1701  162.4898 C.3     1  UNL1        0.1591
     30 C         137.7311  138.9128  161.6820 C.3     1  UNL1        0.1729
     31 O         138.3586  137.6405  162.1695 O.3     1  UNL1       -0.3511
     32 C         139.1148  137.6256  163.4648 C.3     1  UNL1        0.1437
     33 C         139.2435  138.8829  164.2726 C.3     1  UNL1        0.0503
     34 C         138.6159  140.1551  163.7851 C.3     1  UNL1        0.0865
     35 C         138.0510  142.4351  161.2317 C.3     1  UNL1        0.1742
     36 O         137.2322  141.4423  162.0023 O.3     1  UNL1       -0.3496
@<TRIPOS>BOND
     1    35    36    1
     2    29    36    1
     3    29    30    1
     4    30    31    1
     5    31    32    1
     6    32    33    1
     7    33    34    1
     8    34    27    1
     9     1    27    1
    10     1     2    1
    11     2     3    1
    12     3     4    1
    13     4     6    1
    14     6     7    2
    15     6     8   am
    16     8     9    1
    17     9    10    1
    18    10    11    1
    19    11    14    1
    20    14    15   ar
    21    15    16   ar
    22    16    17   ar
    23    17    18   ar
    24    18    20    1
    25    20    21    1
    26    20    22    1
    27    20    23    1
    28    18    19   ar
    29    11    12    1
    30    12    13    1
    31     4    24    1
    32    24    25    1
    33    24    26    1
    34     4     5    1
    35    34    29    1
    36     5     1    1
    37    13     8    1
    38    19    14   ar
    39    27    28    1
@<TRIPOS>MOLECULE
*****
 36 39 0 0 0
SMALL
GASTEIGER

@<TRIPOS>ATOM
      1 C         142.7349  140.1806  164.8684 C.3     1  UNL1        0.0545
      2 C         142.2430  139.2638  165.9489 C.3     1  UNL1        0.0162
      3 C         140.9658  138.6345  165.4770 C.3     1  UNL1        0.0100
      4 C         140.6682  139.1624  164.1048 C.3     1  UNL1        0.0704
      5 C         141.7616  140.1179  163.7287 C.3     1  UNL1        0.0243
      6 C         140.1182  139.5056  162.7522 C.2     1  UNL1        0.2248
      7 O         138.8994  140.3721  162.6360 O.2     1  UNL1       -0.2749
      8 N         140.7869  138.9822  161.5157 N.am    1  UNL1       -0.2760
      9 C         142.0057  138.1156  161.6320 C.3     1  UNL1        0.1149
     10 C         142.6746  137.5922  160.3956 C.3     1  UNL1        0.1151
     11 N         142.1245  137.9353  159.0429 N.pl3   1  UNL1       -0.2747
     12 C         140.9057  138.8019  158.9266 C.3     1  UNL1        0.1151
     13 C         140.2369  139.3253  160.1631 C.3     1  UNL1        0.1149
     14 C         142.7934  137.4119  157.8065 C.ar    1  UNL1        0.2202
     15 N         143.3926  138.3663  156.8166 N.ar    1  UNL1       -0.2121
     16 C         144.0614  137.8428  155.5802 C.ar    1  UNL1        0.1033
     17 C         144.1309  136.3649  155.3337 C.ar    1  UNL1        0.0439
     18 C         143.5317  135.4104  156.3236 C.ar    1  UNL1        0.1570
     19 N         142.8629  135.9338  157.5600 N.ar    1  UNL1       -0.2096
     20 C         143.6013  133.9324  156.0770 C.3     1  UNL1        0.4350
     21 F         143.6709  132.4545  155.8305 F       1  UNL1       -0.1644
     22 F         143.3606  134.1650  154.6149 F       1  UNL1       -0.1644
     23 F         143.8421  133.6999  157.5392 F       1  UNL1       -0.1644
     24 C         139.4599  138.2786  164.1982 C.3     1  UNL1        0.0082
     25 C         138.5004  138.4381  165.3401 C.3     1  UNL1        0.0005
     26 C         139.1028  137.5480  163.6439 C.3     1  UNL1        0.0005
     27 N         143.9812  141.0138  164.9187 N.3     1  UNL1       -0.2975
     28 H         144.1736  141.1965  165.9036 H       1  UNL1        0.1232
     29 C         144.3914  142.4034  162.7621 C.3     1  UNL1        0.1591
     30 C         144.4371  143.7276  162.0591 C.3     1  UNL1        0.1729
     31 O         144.1183  144.9866  162.8096 O.3     1  UNL1       -0.3511
     32 C         143.7538  144.9213  164.2632 C.3     1  UNL1        0.1437
     33 C         143.7081  143.5971  164.9662 C.3     1  UNL1        0.0503
     34 C         144.0269  142.3381  164.2156 C.3     1  UNL1        0.0865
     35 C         144.1226  140.9131  160.6510 C.3     1  UNL1        0.1742
     36 O         144.7102  141.1444  162.0116 O.3     1  UNL1       -0.3496
@<TRIPOS>BOND
     1    35    36    1
     2    29    36    1
     3    29    30    1
     4    30    31    1
     5    31    32    1
     6    32    33    1
     7    33    34    1
     8    34    27    1
     9     1    27    1
    10     1     2    1
    11     2     3    1
    12     3     4    1
    13     4     6    1
    14     6     7    2
    15     6     8   am
    16     8     9    1
    17     9    10    1
    18    10    11    1
    19    11    14    1
    20    14    15   ar
    21    15    16   ar
    22    16    17   ar
    23    17    18   ar
    24    18    20    1
    25    20    21    1
    26    20    22    1
    27    20    23    1
    28    18    19   ar
    29    11    12    1
    30    12    13    1
    31     4    24    1
    32    24    25    1
    33    24    26    1
    34     4     5    1
    35    34    29    1
    36     5     1    1
    37    13     8    1
    38    19    14   ar
    39    27    28    1
@<TRIPOS>MOLECULE
*****
 36 39 0 0 0
SMALL
GASTEIGER

@<TRIPOS>ATOM
      1 C         140.8836  142.1516  165.8718 C.3     1  UNL1        0.0545
      2 C         140.4290  141.0101  166.7322 C.3     1  UNL1        0.0162
      3 C         141.2921  139.8232  166.4216 C.3     1  UNL1        0.0100
      4 C         142.2801  140.2313  165.3693 C.3     1  UNL1        0.0704
      5 C         142.0276  141.6703  165.0295 C.3     1  UNL1        0.0243
      6 C         143.3684  140.3434  164.3432 C.2     1  UNL1        0.2248
      7 O         144.7157  140.8747  164.7337 O.2     1  UNL1       -0.2749
      8 N         143.1095  139.9243  162.9264 N.am    1  UNL1       -0.2760
      9 C         141.7622  139.3930  162.5358 C.3     1  UNL1        0.1149
     10 C         141.5032  138.9738  161.1190 C.3     1  UNL1        0.1151
     11 N         142.5914  139.0860  160.0928 N.pl3   1  UNL1       -0.2747
     12 C         143.9387  139.6172  160.4834 C.3     1  UNL1        0.1151
     13 C         144.1977  140.0364  161.9002 C.3     1  UNL1        0.1149
     14 C         142.3324  138.6668  158.6760 C.ar    1  UNL1        0.2202
     15 N         141.3876  139.4577  157.8207 N.ar    1  UNL1       -0.2121
     16 C         141.1286  139.0385  156.4039 C.ar    1  UNL1        0.1033
     17 C         141.8144  137.8284  155.8426 C.ar    1  UNL1        0.0439
     18 C         142.7593  137.0374  156.6979 C.ar    1  UNL1        0.1570
     19 N         143.0183  137.4566  158.1147 N.ar    1  UNL1       -0.2096
     20 C         143.4451  135.8273  156.1365 C.3     1  UNL1        0.4350
     21 F         144.1308  134.6171  155.5751 F       1  UNL1       -0.1644
     22 F         142.3545  134.9551  156.6843 F       1  UNL1       -0.1644
     23 F         144.5356  136.6994  155.5887 F       1  UNL1       -0.1644
     24 C         142.7601  138.8157  165.4946 C.3     1  UNL1        0.0082
     25 C         141.8781  137.6833  165.0590 C.3     1  UNL1        0.0005
     26 C         143.5904  138.4019  165.8232 C.3     1  UNL1        0.0005
     27 N         140.2971  143.5321  165.8565 N.3     1  UNL1       -0.2975
     28 H         139.5477  143.5414  166.5484 H       1  UNL1        0.1232
     29 C         140.5761  144.9223  163.6794 C.3     1  UNL1        0.1591
     30 C         140.0009  145.4787  162.4107 C.3     1  UNL1        0.1729
     31 O         138.5715  145.2013  162.0504 O.3     1  UNL1       -0.3511
     32 C         137.7173  144.3676  162.9588 C.3     1  UNL1        0.1437
     33 C         138.2925  143.8112  164.2274 C.3     1  UNL1        0.0503
     34 C         139.7219  144.0886  164.5877 C.3     1  UNL1        0.0865
     35 C         143.1062  144.8020  163.1014 C.3     1  UNL1        0.1742
     36 O         142.0055  145.1996  164.0397 O.3     1  UNL1       -0.3496
@<TRIPOS>BOND
     1    35    36    1
     2    29    36    1
     3    29    30    1
     4    30    31    1
     5    31    32    1
     6    32    33    1
     7    33    34    1
     8    34    27    1
     9     1    27    1
    10     1     2    1
    11     2     3    1
    12     3     4    1
    13     4     6    1
    14     6     7    2
    15     6     8   am
    16     8     9    1
    17     9    10    1
    18    10    11    1
    19    11    14    1
    20    14    15   ar
    21    15    16   ar
    22    16    17   ar
    23    17    18   ar
    24    18    20    1
    25    20    21    1
    26    20    22    1
    27    20    23    1
    28    18    19   ar
    29    11    12    1
    30    12    13    1
    31     4    24    1
    32    24    25    1
    33    24    26    1
    34     4     5    1
    35    34    29    1
    36     5     1    1
    37    13     8    1
    38    19    14   ar
    39    27    28    1
@<TRIPOS>MOLECULE
*****
 36 39 0 0 0
SMALL
GASTEIGER

@<TRIPOS>ATOM
      1 C         140.1143  141.9303  164.9154 C.3     1  UNL1        0.0545
      2 C         141.1567  141.9650  165.9935 C.3     1  UNL1        0.0162
      3 C         142.2605  142.8749  165.5419 C.3     1  UNL1        0.0100
      4 C         141.9002  143.4025  164.1848 C.3     1  UNL1        0.0704
      5 C         140.5738  142.8187  163.7976 C.3     1  UNL1        0.0243
      6 C         141.8134  144.0818  162.8503 C.2     1  UNL1        0.2248
      7 O         141.1276  145.4102  162.7280 O.2     1  UNL1       -0.2749
      8 N         142.4124  143.4327  161.6378 N.am    1  UNL1       -0.2760
      9 C         143.0982  142.1043  161.7601 C.3     1  UNL1        0.1149
     10 C         143.6972  141.4551  160.5478 C.3     1  UNL1        0.1151
     11 N         143.6105  142.1343  159.2132 N.pl3   1  UNL1       -0.2747
     12 C         142.9246  143.4627  159.0910 C.3     1  UNL1        0.1151
     13 C         142.3256  144.1119  160.3033 C.3     1  UNL1        0.1149
     14 C         144.2095  141.4851  158.0009 C.ar    1  UNL1        0.2202
     15 N         143.5206  140.3187  157.3571 N.ar    1  UNL1       -0.2121
     16 C         144.1196  139.6695  156.1448 C.ar    1  UNL1        0.1033
     17 C         145.4076  140.1869  155.5763 C.ar    1  UNL1        0.0439
     18 C         146.0966  141.3534  156.2200 C.ar    1  UNL1        0.1570
     19 N         145.4976  142.0026  157.4324 N.ar    1  UNL1       -0.2096
     20 C         147.3847  141.8708  155.6515 C.3     1  UNL1        0.4350
     21 F         148.6727  142.3881  155.0829 F       1  UNL1       -0.1644
     22 F         147.0345  141.2780  154.3188 F       1  UNL1       -0.1644
     23 F         147.7349  142.4635  156.9841 F       1  UNL1       -0.1644
     24 C         143.2083  144.1283  164.2930 C.3     1  UNL1        0.0082
     25 C         144.4089  143.4302  164.8599 C.3     1  UNL1        0.0005
     26 C         143.5069  145.0375  164.0628 C.3     1  UNL1        0.0005
     27 N         138.8368  141.1450  164.9493 N.3     1  UNL1       -0.2975
     28 H         138.7874  140.7024  165.8669 H       1  UNL1        0.1232
     29 C         137.8497  140.3826  162.6701 C.3     1  UNL1        0.1591
     30 C         137.6047  139.3049  161.6559 C.3     1  UNL1        0.1729
     31 O         138.1017  137.9120  161.9066 O.3     1  UNL1       -0.3511
     32 C         138.8437  137.5968  163.1715 C.3     1  UNL1        0.1437
     33 C         139.0887  138.6744  164.1857 C.3     1  UNL1        0.0503
     34 C         138.5917  140.0673  163.9350 C.3     1  UNL1        0.0865
     35 C         138.0020  142.6255  161.3678 C.3     1  UNL1        0.1742
     36 O         137.3527  141.7754  162.4194 O.3     1  UNL1       -0.3496
@<TRIPOS>BOND
     1    35    36    1
     2    29    36    1
     3    29    30    1
     4    30    31    1
     5    31    32    1
     6    32    33    1
     7    33    34    1
     8    34    27    1
     9     1    27    1
    10     1     2    1
    11     2     3    1
    12     3     4    1
    13     4     6    1
    14     6     7    2
    15     6     8   am
    16     8     9    1
    17     9    10    1
    18    10    11    1
    19    11    14    1
    20    14    15   ar
    21    15    16   ar
    22    16    17   ar
    23    17    18   ar
    24    18    20    1
    25    20    21    1
    26    20    22    1
    27    20    23    1
    28    18    19   ar
    29    11    12    1
    30    12    13    1
    31     4    24    1
    32    24    25    1
    33    24    26    1
    34     4     5    1
    35    34    29    1
    36     5     1    1
    37    13     8    1
    38    19    14   ar
    39    27    28    1
@<TRIPOS>MOLECULE
*****
 36 39 0 0 0
SMALL
GASTEIGER

@<TRIPOS>ATOM
      1 C         140.6884  141.5066  164.7485 C.3     1  UNL1        0.0545
      2 C         141.5678  141.2213  165.9297 C.3     1  UNL1        0.0162
      3 C         142.9383  141.7498  165.6256 C.3     1  UNL1        0.0100
      4 C         142.9059  142.3617  164.2565 C.3     1  UNL1        0.0704
      5 C         141.5154  142.2114  163.7144 C.3     1  UNL1        0.0243
      6 C         143.1760  143.0345  162.9433 C.2     1  UNL1        0.2248
      7 O         143.2889  144.5286  162.8753 O.2     1  UNL1       -0.2749
      8 N         143.3331  142.2130  161.6981 N.am    1  UNL1       -0.2760
      9 C         143.2201  140.7188  161.7661 C.3     1  UNL1        0.1149
     10 C         143.3772  139.8973  160.5210 C.3     1  UNL1        0.1151
     11 N         143.6473  140.5700  159.2078 N.pl3   1  UNL1       -0.2747
     12 C         143.7602  142.0641  159.1397 C.3     1  UNL1        0.1151
     13 C         143.6031  142.8857  160.3849 C.3     1  UNL1        0.1149
     14 C         143.8043  139.7485  157.9626 C.ar    1  UNL1        0.2202
     15 N         144.6377  140.2613  156.8258 N.ar    1  UNL1       -0.2121
     16 C         144.7948  139.4398  155.5806 C.ar    1  UNL1        0.1033
     17 C         144.1184  138.1054  155.4723 C.ar    1  UNL1        0.0439
     18 C         143.2850  137.5924  156.6091 C.ar    1  UNL1        0.1570
     19 N         143.1279  138.4140  157.8543 N.ar    1  UNL1       -0.2096
     20 C         142.6086  136.2580  156.5007 C.3     1  UNL1        0.4350
     21 F         141.9323  134.9235  156.3923 F       1  UNL1       -0.1644
     22 F         143.9062  135.6345  156.0793 F       1  UNL1       -0.1644
     23 F         141.3111  136.8814  156.9221 F       1  UNL1       -0.1644
     24 C         144.3529  142.6526  164.5241 C.3     1  UNL1        0.0082
     25 C         144.7342  143.7324  165.4929 C.3     1  UNL1        0.0005
     26 C         145.1990  142.2760  164.1909 C.3     1  UNL1        0.0005
     27 N         139.2368  141.1498  164.6233 N.3     1  UNL1       -0.2975
     28 H         138.9278  140.8453  165.5465 H       1  UNL1        0.1232
     29 C         137.8655  140.4368  162.5350 C.3     1  UNL1        0.1591
     30 C         137.4345  139.3786  161.5632 C.3     1  UNL1        0.1729
     31 O         137.9436  137.9751  161.7081 O.3     1  UNL1       -0.3511
     32 C         138.8838  137.6298  162.8246 C.3     1  UNL1        0.1437
     33 C         139.3148  138.6881  163.7964 C.3     1  UNL1        0.0503
     34 C         138.8057  140.0916  163.6515 C.3     1  UNL1        0.0865
     35 C         138.1705  142.8610  161.6516 C.3     1  UNL1        0.1742
     36 O         137.3564  141.8403  162.3901 O.3     1  UNL1       -0.3496
@<TRIPOS>BOND
     1    35    36    1
     2    29    36    1
     3    29    30    1
     4    30    31    1
     5    31    32    1
     6    32    33    1
     7    33    34    1
     8    34    27    1
     9     1    27    1
    10     1     2    1
    11     2     3    1
    12     3     4    1
    13     4     6    1
    14     6     7    2
    15     6     8   am
    16     8     9    1
    17     9    10    1
    18    10    11    1
    19    11    14    1
    20    14    15   ar
    21    15    16   ar
    22    16    17   ar
    23    17    18   ar
    24    18    20    1
    25    20    21    1
    26    20    22    1
    27    20    23    1
    28    18    19   ar
    29    11    12    1
    30    12    13    1
    31     4    24    1
    32    24    25    1
    33    24    26    1
    34     4     5    1
    35    34    29    1
    36     5     1    1
    37    13     8    1
    38    19    14   ar
    39    27    28    1
@<TRIPOS>MOLECULE
*****
 36 39 0 0 0
SMALL
GASTEIGER

@<TRIPOS>ATOM
      1 C         141.8837  141.7637  160.0929 C.3     1  UNL1        0.0545
      2 C         143.0766  141.3149  159.3021 C.3     1  UNL1        0.0162
      3 C         143.4235  139.9218  159.7366 C.3     1  UNL1        0.0100
      4 C         142.4450  139.5095  160.7961 C.3     1  UNL1        0.0704
      5 C         141.4933  140.6479  161.0163 C.3     1  UNL1        0.0243
      6 C         141.6297  138.8296  161.8558 C.2     1  UNL1        0.2248
      7 O         140.6889  137.7223  161.4832 O.2     1  UNL1       -0.2749
      8 N         141.7552  139.2570  163.2881 N.am    1  UNL1       -0.2760
      9 C         142.6960  140.3643  163.6607 C.3     1  UNL1        0.1149
     10 C         142.8215  140.7918  165.0930 C.3     1  UNL1        0.1151
     11 N         142.0063  140.1119  166.1528 N.pl3   1  UNL1       -0.2747
     12 C         141.0655  139.0046  165.7802 C.3     1  UNL1        0.1151
     13 C         140.9400  138.5771  164.3479 C.3     1  UNL1        0.1149
     14 C         142.1318  140.5394  167.5851 C.ar    1  UNL1        0.2202
     15 N         142.8055  139.6411  168.5796 N.ar    1  UNL1       -0.2121
     16 C         142.9310  140.0685  170.0119 C.ar    1  UNL1        0.1033
     17 C         142.3828  141.3944  170.4497 C.ar    1  UNL1        0.0439
     18 C         141.7091  142.2927  169.4551 C.ar    1  UNL1        0.1570
     19 N         141.5836  141.8653  168.0228 N.ar    1  UNL1       -0.2096
     20 C         141.1610  143.6185  169.8930 C.3     1  UNL1        0.4350
     21 F         140.6128  144.9444  170.3308 F       1  UNL1       -0.1644
     22 F         142.4517  143.9204  170.5950 F       1  UNL1       -0.1644
     23 F         139.8702  143.3167  169.1909 F       1  UNL1       -0.1644
     24 C         143.2262  138.2291  160.7974 C.3     1  UNL1        0.0082
     25 C         143.0676  137.2525  159.6699 C.3     1  UNL1        0.0005
     26 C         143.8817  137.8287  161.4128 C.3     1  UNL1        0.0005
     27 N         141.2010  143.0946  159.9803 N.3     1  UNL1       -0.2975
     28 H         141.8605  143.7263  159.5260 H       1  UNL1        0.1232
     29 C         141.6767  144.5432  162.0839 C.3     1  UNL1        0.1591
     30 C         141.1874  145.2419  163.3177 C.3     1  UNL1        0.1729
     31 O         139.7331  145.1908  163.6817 O.3     1  UNL1       -0.3511
     32 C         138.7681  144.4410  162.8120 C.3     1  UNL1        0.1437
     33 C         139.2574  143.7422  161.5782 C.3     1  UNL1        0.0503
     34 C         140.7117  143.7934  161.2141 C.3     1  UNL1        0.0865
     35 C         144.0861  143.5969  162.3052 C.3     1  UNL1        0.1742
     36 O         143.1309  144.5943  161.7199 O.3     1  UNL1       -0.3496
@<TRIPOS>BOND
     1    35    36    1
     2    29    36    1
     3    29    30    1
     4    30    31    1
     5    31    32    1
     6    32    33    1
     7    33    34    1
     8    34    27    1
     9     1    27    1
    10     1     2    1
    11     2     3    1
    12     3     4    1
    13     4     6    1
    14     6     7    2
    15     6     8   am
    16     8     9    1
    17     9    10    1
    18    10    11    1
    19    11    14    1
    20    14    15   ar
    21    15    16   ar
    22    16    17   ar
    23    17    18   ar
    24    18    20    1
    25    20    21    1
    26    20    22    1
    27    20    23    1
    28    18    19   ar
    29    11    12    1
    30    12    13    1
    31     4    24    1
    32    24    25    1
    33    24    26    1
    34     4     5    1
    35    34    29    1
    36     5     1    1
    37    13     8    1
    38    19    14   ar
    39    27    28    1
@<TRIPOS>MOLECULE
*****
 36 39 0 0 0
SMALL
GASTEIGER

@<TRIPOS>ATOM
      1 C         139.8933  141.7074  164.9592 C.3     1  UNL1        0.0545
      2 C         139.5932  140.8376  166.1438 C.3     1  UNL1        0.0162
      3 C         140.7232  139.8639  166.3022 C.3     1  UNL1        0.0100
      4 C         141.7218  140.1320  165.2154 C.3     1  UNL1        0.0704
      5 C         141.2088  141.2713  164.3854 C.3     1  UNL1        0.0243
      6 C         142.8780  140.1633  164.2604 C.2     1  UNL1        0.2248
      7 O         144.2012  140.7144  164.7024 O.2     1  UNL1       -0.2749
      8 N         142.7110  139.6435  162.8632 N.am    1  UNL1       -0.2760
      9 C         141.3878  139.0924  162.4212 C.3     1  UNL1        0.1149
     10 C         141.2208  138.5725  161.0241 C.3     1  UNL1        0.1151
     11 N         142.3770  138.6038  160.0690 N.pl3   1  UNL1       -0.2747
     12 C         143.7002  139.1549  160.5110 C.3     1  UNL1        0.1151
     13 C         143.8672  139.6747  161.9081 C.3     1  UNL1        0.1149
     14 C         142.2100  138.0840  158.6719 C.ar    1  UNL1        0.2202
     15 N         141.2522  138.7539  157.7319 N.ar    1  UNL1       -0.2121
     16 C         141.0852  138.2340  156.3348 C.ar    1  UNL1        0.1033
     17 C         141.8760  137.0442  155.8778 C.ar    1  UNL1        0.0439
     18 C         142.8338  136.3742  156.8179 C.ar    1  UNL1        0.1570
     19 N         143.0008  136.8940  158.2150 N.ar    1  UNL1       -0.2096
     20 C         143.6246  135.1844  156.3608 C.3     1  UNL1        0.4350
     21 F         144.4154  133.9945  155.9038 F       1  UNL1       -0.1644
     22 F         144.5073  136.0836  155.5470 F       1  UNL1       -0.1644
     23 F         142.7419  134.2851  157.1746 F       1  UNL1       -0.1644
     24 C         142.4764  138.9993  165.8457 C.3     1  UNL1        0.0082
     25 C         142.9571  139.1144  167.2620 C.3     1  UNL1        0.0005
     26 C         142.7640  138.1115  165.5330 C.3     1  UNL1        0.0005
     27 N         139.0295  142.8182  164.4396 N.3     1  UNL1       -0.2975
     28 H         138.0627  142.5495  164.6224 H       1  UNL1        0.1232
     29 C         138.2573  142.5032  161.9790 C.3     1  UNL1        0.1591
     30 C         138.3314  142.8975  160.5337 C.3     1  UNL1        0.1729
     31 O         139.2518  144.0010  160.1036 O.3     1  UNL1       -0.3511
     32 C         140.0981  144.7103  161.1188 C.3     1  UNL1        0.1437
     33 C         140.0240  144.3160  162.5641 C.3     1  UNL1        0.0503
     34 C         139.1036  143.2125  162.9942 C.3     1  UNL1        0.0865
     35 C         137.7939  139.9726  162.3411 C.3     1  UNL1        0.1742
     36 O         137.3369  141.3996  162.4092 O.3     1  UNL1       -0.3496
@<TRIPOS>BOND
     1    35    36    1
     2    29    36    1
     3    29    30    1
     4    30    31    1
     5    31    32    1
     6    32    33    1
     7    33    34    1
     8    34    27    1
     9     1    27    1
    10     1     2    1
    11     2     3    1
    12     3     4    1
    13     4     6    1
    14     6     7    2
    15     6     8   am
    16     8     9    1
    17     9    10    1
    18    10    11    1
    19    11    14    1
    20    14    15   ar
    21    15    16   ar
    22    16    17   ar
    23    17    18   ar
    24    18    20    1
    25    20    21    1
    26    20    22    1
    27    20    23    1
    28    18    19   ar
    29    11    12    1
    30    12    13    1
    31     4    24    1
    32    24    25    1
    33    24    26    1
    34     4     5    1
    35    34    29    1
    36     5     1    1
    37    13     8    1
    38    19    14   ar
    39    27    28    1
