@<TRIPOS>MOLECULE
*****
 27 29 0 0 0
SMALL
GASTEIGER

@<TRIPOS>ATOM
      1 S         138.6188  140.8827  164.8997 S.O2    1  UNL1        0.0602
      2 O         139.2727  140.9844  166.2458 O.2     1  UNL1       -0.1530
      3 O         137.9649  140.7809  163.5535 O.2     1  UNL1       -0.1530
      4 C         141.4983  143.9330  163.2704 C.ar    1  UNL1        0.1386
      5 C         141.5199  142.5271  162.7480 C.ar    1  UNL1        0.0383
      6 C         140.5602  141.5103  163.2911 C.ar    1  UNL1        0.0230
      7 C         139.5787  141.8994  164.3566 C.ar    1  UNL1        0.1221
      8 C         139.5570  143.3053  164.8790 C.ar    1  UNL1        0.0230
      9 C         140.5168  144.3222  164.3359 C.ar    1  UNL1        0.0383
     10 O         142.4581  144.9498  162.7273 O.3     1  UNL1       -0.4755
     11 C         143.8580  145.0199  163.2614 C.3     1  UNL1        0.2054
     12 C         144.1309  144.6821  164.6972 C.3     1  UNL1        0.0473
     13 C         145.0611  142.3431  164.0539 C.3     1  UNL1        0.0001
     14 C         144.4965  143.2790  165.0812 C.3     1  UNL1        0.0038
     15 N         137.6590  139.8659  165.4427 N.3     1  UNL1       -0.1790
     16 H         137.1652  139.4704  164.6426 H       1  UNL1        0.1488
     17 C         138.1689  138.7101  166.2514 C.3     1  UNL1        0.0962
     18 C         138.7252  137.4996  165.5618 C.3     1  UNL1        0.0468
     19 C         139.5946  137.6601  164.3501 C.2     1  UNL1       -0.0005
     20 C         139.1778  137.4249  162.9285 C.2     1  UNL1        0.0942
     21 N         140.3591  137.7033  162.0470 N.2     1  UNL1       -0.2482
     22 C         141.5060  138.1107  162.9238 C.2     1  UNL1        0.0631
     23 C         142.9195  138.5024  162.6100 C.3     1  UNL1        0.0717
     24 C         143.8605  138.8675  163.7196 C.2     1  UNL1       -0.0198
     25 C         143.3880  138.8407  165.1430 C.2     1  UNL1       -0.0042
     26 C         141.9745  138.4489  165.4568 C.2     1  UNL1        0.0006
     27 C         141.0335  138.0839  164.3472 C.2     1  UNL1        0.0114
@<TRIPOS>BOND
     1    13    14    1
     2    14    12    1
     3    12    11    1
     4    11    10    1
     5    10     4    1
     6     4     5   ar
     7     5     6   ar
     8     6     7   ar
     9     7     1    1
    10     1     2    2
    11     1     3    2
    12     1    15    1
    13    15    17    1
    14    17    18    1
    15    18    19    1
    16    19    20    2
    17    20    21    1
    18    21    22    2
    19    22    23    1
    20    23    24    1
    21    24    25    2
    22    25    26    1
    23    26    27    2
    24     7     8   ar
    25     8     9   ar
    26     9     4   ar
    27    27    19    1
    28    27    22    1
    29    15    16    1
@<TRIPOS>MOLECULE
*****
 27 29 0 0 0
SMALL
GASTEIGER

@<TRIPOS>ATOM
      1 S         139.6930  138.0871  163.4547 S.O2    1  UNL1        0.0602
      2 O         138.5953  137.1324  163.8203 O.2     1  UNL1       -0.1530
      3 O         140.7908  139.0418  163.0890 O.2     1  UNL1       -0.1530
      4 C         139.5665  139.8219  167.6049 C.ar    1  UNL1        0.1386
      5 C         140.8008  139.9731  166.7661 C.ar    1  UNL1        0.0383
      6 C         140.8430  139.3949  165.3827 C.ar    1  UNL1        0.0230
      7 C         139.6509  138.6654  164.8381 C.ar    1  UNL1        0.1221
      8 C         138.4166  138.5141  165.6769 C.ar    1  UNL1        0.0230
      9 C         138.3743  139.0924  167.0603 C.ar    1  UNL1        0.0383
     10 O         139.5243  140.4001  168.9883 O.3     1  UNL1       -0.4755
     11 C         140.6869  140.2093  169.9168 C.3     1  UNL1        0.2054
     12 C         141.4225  141.4017  170.4526 C.3     1  UNL1        0.0473
     13 C         140.4468  143.6398  169.5643 C.3     1  UNL1        0.0001
     14 C         141.5612  142.6369  169.6131 C.3     1  UNL1        0.0038
     15 N         139.7352  137.5089  162.0712 N.3     1  UNL1       -0.1790
     16 H         139.2285  136.6244  162.1062 H       1  UNL1        0.1488
     17 C         139.1733  138.2845  160.9168 C.3     1  UNL1        0.0962
     18 C         137.9723  139.1611  161.1158 C.3     1  UNL1        0.0468
     19 C         138.1122  140.6528  161.0430 C.2     1  UNL1       -0.0005
     20 C         138.3761  141.4541  159.8027 C.2     1  UNL1        0.0942
     21 N         138.4398  142.9016  160.1909 N.2     1  UNL1       -0.2482
     22 C         138.2153  142.9949  161.6711 C.2     1  UNL1        0.0631
     23 C         138.1691  144.1658  162.6074 C.3     1  UNL1        0.0717
     24 C         137.9204  143.9469  164.0703 C.2     1  UNL1       -0.0198
     25 C         137.7180  142.5571  164.5969 C.2     1  UNL1       -0.0042
     26 C         137.7642  141.3861  163.6606 C.2     1  UNL1        0.0006
     27 C         138.0129  141.6050  162.1977 C.2     1  UNL1        0.0114
@<TRIPOS>BOND
     1    13    14    1
     2    14    12    1
     3    12    11    1
     4    11    10    1
     5    10     4    1
     6     4     5   ar
     7     5     6   ar
     8     6     7   ar
     9     7     1    1
    10     1     2    2
    11     1     3    2
    12     1    15    1
    13    15    17    1
    14    17    18    1
    15    18    19    1
    16    19    20    2
    17    20    21    1
    18    21    22    2
    19    22    23    1
    20    23    24    1
    21    24    25    2
    22    25    26    1
    23    26    27    2
    24     7     8   ar
    25     8     9   ar
    26     9     4   ar
    27    27    19    1
    28    27    22    1
    29    15    16    1
@<TRIPOS>MOLECULE
*****
 27 29 0 0 0
SMALL
GASTEIGER

@<TRIPOS>ATOM
      1 S         139.0945  138.9391  165.6604 S.O2    1  UNL1        0.0602
      2 O         137.6835  139.1624  166.1179 O.2     1  UNL1       -0.1530
      3 O         140.5055  138.7158  165.2029 O.2     1  UNL1       -0.1530
      4 C         140.5501  141.9323  168.6889 C.ar    1  UNL1        0.1386
      5 C         141.0009  142.0297  167.2616 C.ar    1  UNL1        0.0383
      6 C         140.5157  141.0320  166.2521 C.ar    1  UNL1        0.0230
      7 C         139.5797  139.9368  166.6699 C.ar    1  UNL1        0.1221
      8 C         139.1289  139.8395  168.0972 C.ar    1  UNL1        0.0230
      9 C         139.6141  140.8372  169.1068 C.ar    1  UNL1        0.0383
     10 O         141.0353  142.9301  169.6984 O.3     1  UNL1       -0.4755
     11 C         142.3408  142.7094  170.4035 C.3     1  UNL1        0.2054
     12 C         143.2298  141.5717  169.9970 C.3     1  UNL1        0.0473
     13 C         142.5711  139.0663  169.7991 C.3     1  UNL1        0.0001
     14 C         143.0543  140.2211  170.6254 C.3     1  UNL1        0.0038
     15 N         138.6093  137.9413  164.6509 N.3     1  UNL1       -0.1790
     16 H         137.6243  137.7719  164.8543 H       1  UNL1        0.1488
     17 C         138.7021  138.2508  163.1861 C.3     1  UNL1        0.0962
     18 C         138.2084  139.5681  162.6651 C.3     1  UNL1        0.0468
     19 C         139.1223  140.7574  162.6466 C.2     1  UNL1       -0.0005
     20 C         140.4229  140.8584  161.9062 C.2     1  UNL1        0.0942
     21 N         141.0004  142.2179  162.1672 N.2     1  UNL1       -0.2482
     22 C         140.0568  142.9571  163.0690 C.2     1  UNL1        0.0631
     23 C         140.1046  144.3355  163.6587 C.3     1  UNL1        0.0717
     24 C         138.9916  144.8112  164.5446 C.2     1  UNL1       -0.0198
     25 C         137.8308  143.9084  164.8409 C.2     1  UNL1       -0.0042
     26 C         137.7831  142.5301  164.2512 C.2     1  UNL1        0.0006
     27 C         138.8961  142.0544  163.3653 C.2     1  UNL1        0.0114
@<TRIPOS>BOND
     1    13    14    1
     2    14    12    1
     3    12    11    1
     4    11    10    1
     5    10     4    1
     6     4     5   ar
     7     5     6   ar
     8     6     7   ar
     9     7     1    1
    10     1     2    2
    11     1     3    2
    12     1    15    1
    13    15    17    1
    14    17    18    1
    15    18    19    1
    16    19    20    2
    17    20    21    1
    18    21    22    2
    19    22    23    1
    20    23    24    1
    21    24    25    2
    22    25    26    1
    23    26    27    2
    24     7     8   ar
    25     8     9   ar
    26     9     4   ar
    27    27    19    1
    28    27    22    1
    29    15    16    1
@<TRIPOS>MOLECULE
*****
 27 29 0 0 0
SMALL
GASTEIGER

@<TRIPOS>ATOM
      1 S         141.4414  143.8724  163.2431 S.O2    1  UNL1        0.0602
      2 O         140.9862  144.6026  164.4718 O.2     1  UNL1       -0.1530
      3 O         141.8966  143.1422  162.0143 O.2     1  UNL1       -0.1530
      4 C         138.8576  140.3648  164.3703 C.ar    1  UNL1        0.1386
      5 C         140.1026  140.1501  163.5617 C.ar    1  UNL1        0.0383
      6 C         140.9639  141.3192  163.1860 C.ar    1  UNL1        0.0230
      7 C         140.5802  142.7032  163.6188 C.ar    1  UNL1        0.1221
      8 C         139.3352  142.9180  164.4274 C.ar    1  UNL1        0.0230
      9 C         138.4738  141.7488  164.8032 C.ar    1  UNL1        0.0383
     10 O         137.9963  139.1956  164.7461 O.3     1  UNL1       -0.4755
     11 C         138.3002  138.4081  165.9860 C.3     1  UNL1        0.2054
     12 C         138.1298  139.0394  167.3360 C.3     1  UNL1        0.0473
     13 C         139.2281  140.2168  169.3750 C.3     1  UNL1        0.0001
     14 C         139.2261  139.8857  167.9120 C.3     1  UNL1        0.0038
     15 N         142.3027  145.0416  162.8673 N.3     1  UNL1       -0.1790
     16 H         141.8690  145.8699  163.2749 H       1  UNL1        0.1488
     17 C         143.7479  145.0679  163.2681 C.3     1  UNL1        0.0962
     18 C         144.2211  144.2364  164.4234 C.3     1  UNL1        0.0468
     19 C         144.4458  142.7640  164.2455 C.2     1  UNL1       -0.0005
     20 C         145.2714  142.1217  163.1704 C.2     1  UNL1        0.0942
     21 N         145.2202  140.6362  163.3719 N.2     1  UNL1       -0.2482
     22 C         144.3629  140.3604  164.5715 C.2     1  UNL1        0.0631
     23 C         143.9563  139.0817  165.2420 C.3     1  UNL1        0.0717
     24 C         143.0711  139.1181  166.4523 C.2     1  UNL1       -0.0198
     25 C         142.5925  140.4331  166.9922 C.2     1  UNL1       -0.0042
     26 C         142.9991  141.7118  166.3218 C.2     1  UNL1        0.0006
     27 C         143.8843  141.6755  165.1114 C.2     1  UNL1        0.0114
@<TRIPOS>BOND
     1    13    14    1
     2    14    12    1
     3    12    11    1
     4    11    10    1
     5    10     4    1
     6     4     5   ar
     7     5     6   ar
     8     6     7   ar
     9     7     1    1
    10     1     2    2
    11     1     3    2
    12     1    15    1
    13    15    17    1
    14    17    18    1
    15    18    19    1
    16    19    20    2
    17    20    21    1
    18    21    22    2
    19    22    23    1
    20    23    24    1
    21    24    25    2
    22    25    26    1
    23    26    27    2
    24     7     8   ar
    25     8     9   ar
    26     9     4   ar
    27    27    19    1
    28    27    22    1
    29    15    16    1
@<TRIPOS>MOLECULE
*****
 27 29 0 0 0
SMALL
GASTEIGER

@<TRIPOS>ATOM
      1 S         143.6232  142.5648  163.9499 S.O2    1  UNL1        0.0602
      2 O         143.6212  142.3928  162.4598 O.2     1  UNL1       -0.1530
      3 O         143.6251  142.7369  165.4400 O.2     1  UNL1       -0.1530
      4 C         141.5009  138.6232  164.4076 C.ar    1  UNL1        0.1386
      5 C         142.4703  139.0794  165.4574 C.ar    1  UNL1        0.0383
      6 C         143.1777  140.3932  165.3049 C.ar    1  UNL1        0.0230
      7 C         142.9158  141.2510  164.1025 C.ar    1  UNL1        0.1221
      8 C         141.9463  140.7948  163.0527 C.ar    1  UNL1        0.0230
      9 C         141.2388  139.4808  163.2052 C.ar    1  UNL1        0.0383
     10 O         140.7935  137.3093  164.5603 O.3     1  UNL1       -0.4755
     11 C         139.3244  137.2791  164.8618 C.3     1  UNL1        0.2054
     12 C         138.5975  138.5522  165.1791 C.3     1  UNL1        0.0473
     13 C         137.2721  138.2403  167.3918 C.3     1  UNL1        0.0001
     14 C         138.3446  138.9357  166.6070 C.3     1  UNL1        0.0038
     15 N         144.3305  143.8787  163.7973 N.3     1  UNL1       -0.1790
     16 H         145.1337  143.7121  163.1910 H       1  UNL1        0.1488
     17 C         143.6010  145.0623  163.2343 C.3     1  UNL1        0.0962
     18 C         142.2992  145.4981  163.8390 C.3     1  UNL1        0.0468
     19 C         141.0038  145.1120  163.1889 C.2     1  UNL1       -0.0005
     20 C         140.4623  145.6661  161.9045 C.2     1  UNL1        0.0942
     21 N         139.1462  145.0005  161.6309 N.2     1  UNL1       -0.2482
     22 C         138.8743  144.0350  162.7462 C.2     1  UNL1        0.0631
     23 C         137.7296  143.1020  163.0094 C.3     1  UNL1        0.0717
     24 C         137.7331  142.2380  164.2354 C.2     1  UNL1       -0.0198
     25 C         138.8811  142.3069  165.1983 C.2     1  UNL1       -0.0042
     26 C         140.0258  143.2398  164.9352 C.2     1  UNL1        0.0006
     27 C         140.0223  144.1039  163.7091 C.2     1  UNL1        0.0114
@<TRIPOS>BOND
     1    13    14    1
     2    14    12    1
     3    12    11    1
     4    11    10    1
     5    10     4    1
     6     4     5   ar
     7     5     6   ar
     8     6     7   ar
     9     7     1    1
    10     1     2    2
    11     1     3    2
    12     1    15    1
    13    15    17    1
    14    17    18    1
    15    18    19    1
    16    19    20    2
    17    20    21    1
    18    21    22    2
    19    22    23    1
    20    23    24    1
    21    24    25    2
    22    25    26    1
    23    26    27    2
    24     7     8   ar
    25     8     9   ar
    26     9     4   ar
    27    27    19    1
    28    27    22    1
    29    15    16    1
@<TRIPOS>MOLECULE
*****
 27 29 0 0 0
SMALL
GASTEIGER

@<TRIPOS>ATOM
      1 S         141.2121  137.9122  163.8835 S.O2    1  UNL1        0.0602
      2 O         142.6285  138.2364  163.5111 O.2     1  UNL1       -0.1530
      3 O         139.7956  137.5879  164.2560 O.2     1  UNL1       -0.1530
      4 C         141.8554  139.7582  167.9367 C.ar    1  UNL1        0.1386
      5 C         140.4924  139.7791  167.3109 C.ar    1  UNL1        0.0383
      6 C         140.2779  139.1638  165.9598 C.ar    1  UNL1        0.0230
      7 C         141.4265  138.5275  165.2346 C.ar    1  UNL1        0.1221
      8 C         142.7895  138.5066  165.8604 C.ar    1  UNL1        0.0230
      9 C         143.0041  139.1219  167.2115 C.ar    1  UNL1        0.0383
     10 O         142.0699  140.3735  169.2878 O.3     1  UNL1       -0.4755
     11 C         143.1350  141.4124  169.4783 C.3     1  UNL1        0.2054
     12 C         142.7629  142.7947  169.9262 C.3     1  UNL1        0.0473
     13 C         140.4711  143.1802  168.7647 C.3     1  UNL1        0.0001
     14 C         141.3195  143.1956  170.0016 C.3     1  UNL1        0.0038
     15 N         140.9976  137.2968  162.5325 N.3     1  UNL1       -0.1790
     16 H         140.5545  136.3914  162.6883 H       1  UNL1        0.1488
     17 C         140.1711  138.0122  161.5053 C.3     1  UNL1        0.0962
     18 C         140.2639  139.5037  161.3742 C.3     1  UNL1        0.0468
     19 C         139.2467  140.3800  162.0431 C.2     1  UNL1       -0.0005
     20 C         137.7704  140.3784  161.7774 C.2     1  UNL1        0.0942
     21 N         137.1386  141.4092  162.6652 N.2     1  UNL1       -0.2482
     22 C         138.2244  142.0479  163.4796 C.2     1  UNL1        0.0631
     23 C         138.1950  143.1265  164.5215 C.3     1  UNL1        0.0717
     24 C         139.4686  143.5690  165.1790 C.2     1  UNL1       -0.0198
     25 C         140.7714  142.9329  164.7945 C.2     1  UNL1       -0.0042
     26 C         140.8008  141.8543  163.7525 C.2     1  UNL1        0.0006
     27 C         139.5273  141.4118  163.0950 C.2     1  UNL1        0.0114
@<TRIPOS>BOND
     1    13    14    1
     2    14    12    1
     3    12    11    1
     4    11    10    1
     5    10     4    1
     6     4     5   ar
     7     5     6   ar
     8     6     7   ar
     9     7     1    1
    10     1     2    2
    11     1     3    2
    12     1    15    1
    13    15    17    1
    14    17    18    1
    15    18    19    1
    16    19    20    2
    17    20    21    1
    18    21    22    2
    19    22    23    1
    20    23    24    1
    21    24    25    2
    22    25    26    1
    23    26    27    2
    24     7     8   ar
    25     8     9   ar
    26     9     4   ar
    27    27    19    1
    28    27    22    1
    29    15    16    1
@<TRIPOS>MOLECULE
*****
 27 29 0 0 0
SMALL
GASTEIGER

@<TRIPOS>ATOM
      1 S         144.0522  139.2609  163.6117 S.O2    1  UNL1        0.0602
      2 O         145.1884  140.2262  163.7758 O.2     1  UNL1       -0.1530
      3 O         142.9158  138.2955  163.4477 O.2     1  UNL1       -0.1530
      4 C         142.6728  140.1730  167.7969 C.ar    1  UNL1        0.1386
      5 C         142.7713  141.2740  166.7830 C.ar    1  UNL1        0.0383
      6 C         143.2311  140.9700  165.3880 C.ar    1  UNL1        0.0230
      7 C         143.5924  139.5650  165.0068 C.ar    1  UNL1        0.1221
      8 C         143.4939  138.4639  166.0207 C.ar    1  UNL1        0.0230
      9 C         143.0342  138.7679  167.4158 C.ar    1  UNL1        0.0383
     10 O         142.2131  140.4770  169.1920 O.3     1  UNL1       -0.4755
     11 C         140.8151  140.1327  169.6127 C.3     1  UNL1        0.2054
     12 C         139.6509  140.5628  168.7703 C.3     1  UNL1        0.0473
     13 C         139.2331  140.2510  166.2250 C.3     1  UNL1        0.0001
     14 C         139.1990  139.7087  167.6231 C.3     1  UNL1        0.0038
     15 N         144.5118  138.9568  162.2167 N.3     1  UNL1       -0.1790
     16 H         144.0877  138.0671  161.9543 H       1  UNL1        0.1488
     17 C         144.2206  139.9201  161.1044 C.3     1  UNL1        0.0962
     18 C         143.0017  140.7922  161.1674 C.3     1  UNL1        0.0468
     19 C         143.0989  142.1772  161.7352 C.2     1  UNL1       -0.0005
     20 C         144.2403  143.1311  161.5421 C.2     1  UNL1        0.0942
     21 N         143.9185  144.3949  162.2834 N.2     1  UNL1       -0.2482
     22 C         142.5784  144.2219  162.9346 C.2     1  UNL1        0.0631
     23 C         141.7539  145.1354  163.7922 C.3     1  UNL1        0.0717
     24 C         140.4228  144.6783  164.3111 C.2     1  UNL1       -0.0198
     25 C         139.9163  143.3077  163.9723 C.2     1  UNL1       -0.0042
     26 C         140.7408  142.3942  163.1146 C.2     1  UNL1        0.0006
     27 C         142.0718  142.8513  162.5958 C.2     1  UNL1        0.0114
@<TRIPOS>BOND
     1    13    14    1
     2    14    12    1
     3    12    11    1
     4    11    10    1
     5    10     4    1
     6     4     5   ar
     7     5     6   ar
     8     6     7   ar
     9     7     1    1
    10     1     2    2
    11     1     3    2
    12     1    15    1
    13    15    17    1
    14    17    18    1
    15    18    19    1
    16    19    20    2
    17    20    21    1
    18    21    22    2
    19    22    23    1
    20    23    24    1
    21    24    25    2
    22    25    26    1
    23    26    27    2
    24     7     8   ar
    25     8     9   ar
    26     9     4   ar
    27    27    19    1
    28    27    22    1
    29    15    16    1
@<TRIPOS>MOLECULE
*****
 27 29 0 0 0
SMALL
GASTEIGER

@<TRIPOS>ATOM
      1 S         138.3565  143.7669  162.6725 S.O2    1  UNL1        0.0602
      2 O         138.1310  144.1887  164.0943 O.2     1  UNL1       -0.1530
      3 O         138.5819  143.3452  161.2507 O.2     1  UNL1       -0.1530
      4 C         138.4865  139.4601  163.9706 C.ar    1  UNL1        0.1386
      5 C         138.4549  140.5525  164.9981 C.ar    1  UNL1        0.0383
      6 C         138.4115  141.9881  164.5654 C.ar    1  UNL1        0.0230
      7 C         138.3998  142.3314  163.1053 C.ar    1  UNL1        0.1221
      8 C         138.4315  141.2390  162.0778 C.ar    1  UNL1        0.0230
      9 C         138.4748  139.8033  162.5104 C.ar    1  UNL1        0.0383
     10 O         138.5299  138.0246  164.4033 O.3     1  UNL1       -0.4755
     11 C         139.8286  137.4100  164.8341 C.3     1  UNL1        0.2054
     12 C         141.1133  137.8454  164.1938 C.3     1  UNL1        0.0473
     13 C         142.1089  140.2409  164.0520 C.3     1  UNL1        0.0001
     14 C         141.9159  138.9567  164.8026 C.3     1  UNL1        0.0038
     15 N         138.3131  145.2024  162.2398 N.3     1  UNL1       -0.1790
     16 H         137.8310  145.7176  162.9763 H       1  UNL1        0.1488
     17 C         139.5888  145.9400  161.9592 C.3     1  UNL1        0.0962
     18 C         140.8245  145.6292  162.7510 C.3     1  UNL1        0.0468
     19 C         141.8744  144.7240  162.1781 C.2     1  UNL1       -0.0005
     20 C         142.0531  144.3887  160.7270 C.2     1  UNL1        0.0942
     21 N         143.2191  143.4526  160.6078 N.2     1  UNL1       -0.2482
     22 C         143.7609  143.2092  161.9852 C.2     1  UNL1        0.0631
     23 C         144.9036  142.3737  162.4811 C.3     1  UNL1        0.0717
     24 C         145.2152  142.3239  163.9475 C.2     1  UNL1       -0.0198
     25 C         144.3841  143.1097  164.9180 C.2     1  UNL1       -0.0042
     26 C         143.2414  143.9452  164.4221 C.2     1  UNL1        0.0006
     27 C         142.9298  143.9950  162.9557 C.2     1  UNL1        0.0114
@<TRIPOS>BOND
     1    13    14    1
     2    14    12    1
     3    12    11    1
     4    11    10    1
     5    10     4    1
     6     4     5   ar
     7     5     6   ar
     8     6     7   ar
     9     7     1    1
    10     1     2    2
    11     1     3    2
    12     1    15    1
    13    15    17    1
    14    17    18    1
    15    18    19    1
    16    19    20    2
    17    20    21    1
    18    21    22    2
    19    22    23    1
    20    23    24    1
    21    24    25    2
    22    25    26    1
    23    26    27    2
    24     7     8   ar
    25     8     9   ar
    26     9     4   ar
    27    27    19    1
    28    27    22    1
    29    15    16    1
@<TRIPOS>MOLECULE
*****
 27 29 0 0 0
SMALL
GASTEIGER

@<TRIPOS>ATOM
      1 S         142.1031  144.2845  162.5935 S.O2    1  UNL1        0.0602
      2 O         141.5381  143.4687  161.4687 O.2     1  UNL1       -0.1530
      3 O         142.6682  145.1004  163.7184 O.2     1  UNL1       -0.1530
      4 C         144.1938  140.6340  164.1912 C.ar    1  UNL1        0.1386
      5 C         143.7442  140.6750  162.7607 C.ar    1  UNL1        0.0383
      6 C         143.0473  141.8917  162.2281 C.ar    1  UNL1        0.0230
      7 C         142.8000  143.0677  163.1260 C.ar    1  UNL1        0.1221
      8 C         143.2497  143.0267  164.5564 C.ar    1  UNL1        0.0230
      9 C         143.9466  141.8099  165.0891 C.ar    1  UNL1        0.0383
     10 O         144.8907  139.4171  164.7237 O.3     1  UNL1       -0.4755
     11 C         144.2117  138.5490  165.7411 C.3     1  UNL1        0.2054
     12 C         142.7164  138.4308  165.7480 C.3     1  UNL1        0.0473
     13 C         140.9095  137.0321  164.5116 C.3     1  UNL1        0.0001
     14 C         141.9862  138.0761  164.4867 C.3     1  UNL1        0.0038
     15 N         141.4062  145.5014  162.0610 N.3     1  UNL1       -0.1790
     16 H         141.5802  145.5244  161.0563 H       1  UNL1        0.1488
     17 C         139.9264  145.6602  162.2480 C.3     1  UNL1        0.0962
     18 C         139.2666  145.1351  163.4887 C.3     1  UNL1        0.0468
     19 C         138.6592  143.7636  163.4920 C.2     1  UNL1       -0.0005
     20 C         137.6469  143.2453  162.5140 C.2     1  UNL1        0.0942
     21 N         137.3196  141.8309  162.8915 N.2     1  UNL1       -0.2482
     22 C         138.1296  141.4752  164.1028 C.2     1  UNL1        0.0631
     23 C         138.2202  140.2179  164.9158 C.3     1  UNL1        0.0717
     24 C         139.1388  140.1551  166.1000 C.2     1  UNL1       -0.0198
     25 C         139.9668  141.3496  166.4711 C.2     1  UNL1       -0.0042
     26 C         139.8761  142.6068  165.6581 C.2     1  UNL1        0.0006
     27 C         138.9575  142.6696  164.4740 C.2     1  UNL1        0.0114
@<TRIPOS>BOND
     1    13    14    1
     2    14    12    1
     3    12    11    1
     4    11    10    1
     5    10     4    1
     6     4     5   ar
     7     5     6   ar
     8     6     7   ar
     9     7     1    1
    10     1     2    2
    11     1     3    2
    12     1    15    1
    13    15    17    1
    14    17    18    1
    15    18    19    1
    16    19    20    2
    17    20    21    1
    18    21    22    2
    19    22    23    1
    20    23    24    1
    21    24    25    2
    22    25    26    1
    23    26    27    2
    24     7     8   ar
    25     8     9   ar
    26     9     4   ar
    27    27    19    1
    28    27    22    1
    29    15    16    1
