@<TRIPOS>MOLECULE
*****
 27 30 0 0 0
SMALL
GASTEIGER

@<TRIPOS>ATOM
      1 C         139.3271  141.2835  165.7678 C.3     1  UNL1        0.1703
      2 C         140.1428  142.5345  165.9083 C.3     1  UNL1        0.0596
      3 C         139.7527  143.7725  165.1566 C.3     1  UNL1        0.0614
      4 C         139.0211  144.7245  164.2574 C.3     1  UNL1        0.0175
      5 C         137.8540  143.9948  163.6613 C.3     1  UNL1        0.0175
      6 C         137.8643  142.5918  164.1919 C.3     1  UNL1        0.0614
      7 C         138.1213  141.2706  164.8756 C.3     1  UNL1        0.0596
      8 N         139.0378  142.4545  165.1161 N.3     1  UNL1       -0.2713
      9 O         139.7171  140.0454  166.5195 O.3     1  UNL1       -0.4629
     10 C         141.7214  140.4299  169.9232 C.ar    1  UNL1        0.1564
     11 C         140.6140  140.2757  170.9232 C.ar    1  UNL1        0.1228
     12 N         139.2077  140.0448  170.4553 N.ar    1  UNL1       -0.2357
     13 C         138.9088  139.9680  168.9875 C.ar    1  UNL1        0.1564
     14 C         140.0161  140.1222  167.9875 C.ar    1  UNL1        0.2447
     15 N         141.4224  140.3532  168.4553 N.ar    1  UNL1       -0.2041
     16 N         143.7816  139.6773  171.3158 N.am    1  UNL1       -0.3240
     17 C         143.1277  140.6609  170.3911 C.2     1  UNL1        0.2622
     18 O         143.8802  141.8756  169.9343 O.2     1  UNL1       -0.2687
     19 H         144.7046  139.8289  171.6229 H       1  UNL1        0.1453
     20 H         143.2877  138.8802  171.6156 H       1  UNL1        0.1453
     21 C         139.4278  141.2164  165.8678 C.3     1  UNL1        0.0991
     22 C         139.7882  139.9671  165.1199 C.ar    1  UNL1       -0.0061
     23 C         141.1379  139.8402  164.4779 C.ar    1  UNL1       -0.0029
     24 C         141.4982  138.5910  163.7300 C.ar    1  UNL1       -0.0003
     25 C         140.5089  137.4685  163.6240 C.ar    1  UNL1       -0.0000
     26 C         139.1591  137.5954  164.2660 C.ar    1  UNL1       -0.0003
     27 C         138.7988  138.8447  165.0140 C.ar    1  UNL1       -0.0029
@<TRIPOS>BOND
     1    16    17   am
     2    17    18    2
     3    17    10    1
     4    10    11   ar
     5    11    12   ar
     6    12    13   ar
     7    13    14   ar
     8    14     9    1
     9     1     9    1
    10     1     2    1
    11     3     2    1
    12     3     4    1
    13     4     5    1
    14     6     5    1
    15     6     7    1
    16     6     8    1
    17     8    21    1
    18    21    22    1
    19    22    23   ar
    20    23    24   ar
    21    24    25   ar
    22    25    26   ar
    23    26    27   ar
    24    14    15   ar
    25    15    10   ar
    26     7     1    1
    27    27    22   ar
    28     8     3    1
    29    16    19    1
    30    16    20    1
@<TRIPOS>MOLECULE
*****
 27 30 0 0 0
SMALL
GASTEIGER

@<TRIPOS>ATOM
      1 C         141.8494  141.6562  165.0556 C.3     1  UNL1        0.1703
      2 C         142.3287  140.3670  164.4570 C.3     1  UNL1        0.0596
      3 C         143.7475  140.2402  163.9870 C.3     1  UNL1        0.0614
      4 C         145.1790  140.5569  163.6697 C.3     1  UNL1        0.0175
      5 C         145.4446  141.9722  164.0896 C.3     1  UNL1        0.0175
      6 C         144.1773  142.5302  164.6664 C.3     1  UNL1        0.0614
      7 C         142.7888  142.8185  165.1842 C.3     1  UNL1        0.0596
      8 N         143.1285  141.4598  164.6029 N.3     1  UNL1       -0.2713
      9 O         140.4305  141.7830  165.5256 O.3     1  UNL1       -0.4629
     10 C         139.9313  141.8949  169.4611 C.ar    1  UNL1        0.1564
     11 C         139.3268  140.5446  169.7086 C.ar    1  UNL1        0.1228
     12 N         139.0901  139.6072  168.5618 N.ar    1  UNL1       -0.2357
     13 C         139.4580  140.0200  167.1675 C.ar    1  UNL1        0.1564
     14 C         140.0626  141.3702  166.9200 C.ar    1  UNL1        0.2447
     15 N         140.2992  142.3077  168.0667 N.ar    1  UNL1       -0.2041
     16 N         140.0931  144.3149  170.3925 N.am    1  UNL1       -0.3240
     17 C         140.1680  142.8323  170.6079 C.2     1  UNL1        0.2622
     18 O         140.4795  142.2872  171.9702 O.2     1  UNL1       -0.2687
     19 H         140.2484  144.9301  171.1452 H       1  UNL1        0.1453
     20 H         139.8887  144.6727  169.4983 H       1  UNL1        0.1453
     21 C         141.7096  141.5866  165.0729 C.3     1  UNL1        0.0991
     22 C         140.7508  142.4718  164.3332 C.ar    1  UNL1       -0.0061
     23 C         140.5704  143.8998  164.7551 C.ar    1  UNL1       -0.0029
     24 C         139.6116  144.7849  164.0154 C.ar    1  UNL1       -0.0003
     25 C         138.8331  144.2420  162.8538 C.ar    1  UNL1       -0.0000
     26 C         139.0136  142.8138  162.4319 C.ar    1  UNL1       -0.0003
     27 C         139.9724  141.9288  163.1717 C.ar    1  UNL1       -0.0029
@<TRIPOS>BOND
     1    16    17   am
     2    17    18    2
     3    17    10    1
     4    10    11   ar
     5    11    12   ar
     6    12    13   ar
     7    13    14   ar
     8    14     9    1
     9     1     9    1
    10     1     2    1
    11     3     2    1
    12     3     4    1
    13     4     5    1
    14     6     5    1
    15     6     7    1
    16     6     8    1
    17     8    21    1
    18    21    22    1
    19    22    23   ar
    20    23    24   ar
    21    24    25   ar
    22    25    26   ar
    23    26    27   ar
    24    14    15   ar
    25    15    10   ar
    26     7     1    1
    27    27    22   ar
    28     8     3    1
    29    16    19    1
    30    16    20    1
@<TRIPOS>MOLECULE
*****
 27 30 0 0 0
SMALL
GASTEIGER

@<TRIPOS>ATOM
      1 C         139.7982  141.2559  165.1099 C.3     1  UNL1        0.1703
      2 C         140.6578  142.4836  165.0497 C.3     1  UNL1        0.0596
      3 C         140.0576  143.8008  164.6564 C.3     1  UNL1        0.0614
      4 C         139.0730  144.8506  164.2337 C.3     1  UNL1        0.0175
      5 C         137.7339  144.1934  164.0763 C.3     1  UNL1        0.0175
      6 C         137.8909  142.7375  164.4016 C.3     1  UNL1        0.0614
      7 C         138.3383  141.3454  164.7769 C.3     1  UNL1        0.0596
      8 N         139.3270  142.4949  164.7602 N.3     1  UNL1       -0.2713
      9 O         140.3984  139.9386  165.5032 O.3     1  UNL1       -0.4629
     10 C         140.7889  139.8765  169.4520 C.ar    1  UNL1        0.1564
     11 C         142.2120  139.4226  169.5890 C.ar    1  UNL1        0.1228
     12 N         143.0305  139.1407  168.3641 N.ar    1  UNL1       -0.2357
     13 C         142.4260  139.3127  167.0022 C.ar    1  UNL1        0.1564
     14 C         141.0029  139.7666  166.8652 C.ar    1  UNL1        0.2447
     15 N         140.1844  140.0485  168.0900 N.ar    1  UNL1       -0.2041
     16 N         138.5295  139.7444  170.7279 N.am    1  UNL1       -0.3240
     17 C         139.9704  140.1585  170.6770 C.2     1  UNL1        0.2622
     18 O         140.5927  140.8545  171.8511 O.2     1  UNL1       -0.2687
     19 H         137.9923  139.9295  171.5319 H       1  UNL1        0.1453
     20 H         138.1211  139.2876  169.9574 H       1  UNL1        0.1453
     21 C         139.9272  141.1777  165.1534 C.3     1  UNL1        0.0991
     22 C         139.9740  140.0499  164.1655 C.ar    1  UNL1       -0.0061
     23 C         138.9647  138.9429  164.2426 C.ar    1  UNL1       -0.0029
     24 C         139.0115  137.8153  163.2547 C.ar    1  UNL1       -0.0003
     25 C         140.0674  137.7945  162.1896 C.ar    1  UNL1       -0.0000
     26 C         141.0768  138.9015  162.1125 C.ar    1  UNL1       -0.0003
     27 C         141.0300  140.0292  163.1005 C.ar    1  UNL1       -0.0029
@<TRIPOS>BOND
     1    16    17   am
     2    17    18    2
     3    17    10    1
     4    10    11   ar
     5    11    12   ar
     6    12    13   ar
     7    13    14   ar
     8    14     9    1
     9     1     9    1
    10     1     2    1
    11     3     2    1
    12     3     4    1
    13     4     5    1
    14     6     5    1
    15     6     7    1
    16     6     8    1
    17     8    21    1
    18    21    22    1
    19    22    23   ar
    20    23    24   ar
    21    24    25   ar
    22    25    26   ar
    23    26    27   ar
    24    14    15   ar
    25    15    10   ar
    26     7     1    1
    27    27    22   ar
    28     8     3    1
    29    16    19    1
    30    16    20    1
@<TRIPOS>MOLECULE
*****
 27 30 0 0 0
SMALL
GASTEIGER

@<TRIPOS>ATOM
      1 C         140.4594  141.6481  166.6218 C.3     1  UNL1        0.1703
      2 C         139.8586  140.3414  167.0477 C.3     1  UNL1        0.0596
      3 C         139.4711  140.1258  168.4807 C.3     1  UNL1        0.0614
      4 C         139.2477  140.3485  169.9471 C.3     1  UNL1        0.0175
      5 C         139.7176  141.7330  170.2825 C.3     1  UNL1        0.0175
      6 C         140.2315  142.3659  169.0234 C.3     1  UNL1        0.0614
      7 C         140.6726  142.7393  167.6287 C.3     1  UNL1        0.0596
      8 N         140.0791  141.3726  167.9097 N.3     1  UNL1       -0.2713
      9 O         140.8470  141.8638  165.1888 O.3     1  UNL1       -0.4629
     10 C         143.1815  139.3290  163.2202 C.ar    1  UNL1        0.1564
     11 C         144.5369  139.8894  163.5345 C.ar    1  UNL1        0.1228
     12 N         144.6623  141.1079  164.4003 N.ar    1  UNL1       -0.2357
     13 C         143.4324  141.7660  164.9516 C.ar    1  UNL1        0.1564
     14 C         142.0770  141.2056  164.6373 C.ar    1  UNL1        0.2447
     15 N         141.9515  139.9872  163.7716 N.ar    1  UNL1       -0.2041
     16 N         141.8179  137.2665  162.4223 N.am    1  UNL1       -0.3240
     17 C         143.0560  138.1106  162.3545 C.2     1  UNL1        0.2622
     18 O         144.1688  137.7361  161.4208 O.2     1  UNL1       -0.2687
     19 H         141.7356  136.4668  161.8541 H       1  UNL1        0.1453
     20 H         141.0875  137.5123  163.0351 H       1  UNL1        0.1453
     21 C         140.4666  141.5881  166.4768 C.3     1  UNL1        0.0991
     22 C         139.5912  142.4109  165.5787 C.ar    1  UNL1       -0.0061
     23 C         139.8307  143.8854  165.4433 C.ar    1  UNL1       -0.0029
     24 C         138.9553  144.7081  164.5453 C.ar    1  UNL1       -0.0003
     25 C         137.8403  144.0564  163.7824 C.ar    1  UNL1       -0.0000
     26 C         137.6007  142.5818  163.9178 C.ar    1  UNL1       -0.0003
     27 C         138.4762  141.7591  164.8159 C.ar    1  UNL1       -0.0029
@<TRIPOS>BOND
     1    16    17   am
     2    17    18    2
     3    17    10    1
     4    10    11   ar
     5    11    12   ar
     6    12    13   ar
     7    13    14   ar
     8    14     9    1
     9     1     9    1
    10     1     2    1
    11     3     2    1
    12     3     4    1
    13     4     5    1
    14     6     5    1
    15     6     7    1
    16     6     8    1
    17     8    21    1
    18    21    22    1
    19    22    23   ar
    20    23    24   ar
    21    24    25   ar
    22    25    26   ar
    23    26    27   ar
    24    14    15   ar
    25    15    10   ar
    26     7     1    1
    27    27    22   ar
    28     8     3    1
    29    16    19    1
    30    16    20    1
@<TRIPOS>MOLECULE
*****
 27 30 0 0 0
SMALL
GASTEIGER

@<TRIPOS>ATOM
      1 C         140.8060  142.0467  167.3670 C.3     1  UNL1        0.1703
      2 C         142.1801  141.4452  167.3667 C.3     1  UNL1        0.0596
      3 C         143.1281  141.7399  168.4911 C.3     1  UNL1        0.0614
      4 C         143.7086  142.2874  169.7612 C.3     1  UNL1        0.0175
      5 C         142.6693  143.1522  170.4108 C.3     1  UNL1        0.0175
      6 C         141.4465  143.1391  169.5422 C.3     1  UNL1        0.0614
      7 C         140.3800  142.9430  168.4919 C.3     1  UNL1        0.0596
      8 N         141.7301  142.2663  168.3557 N.3     1  UNL1       -0.2713
      9 O         139.8579  141.7519  166.2426 O.3     1  UNL1       -0.4629
     10 C         139.1718  138.2859  164.4356 C.ar    1  UNL1        0.1564
     11 C         138.4625  137.5347  165.5231 C.ar    1  UNL1        0.1228
     12 N         138.2183  138.1894  166.8504 N.ar    1  UNL1       -0.2357
     13 C         138.6835  139.5951  167.0902 C.ar    1  UNL1        0.1564
     14 C         139.3928  140.3462  166.0027 C.ar    1  UNL1        0.2447
     15 N         139.6370  139.6916  164.6754 N.ar    1  UNL1       -0.2041
     16 N         138.3266  137.5958  162.0777 N.am    1  UNL1       -0.3240
     17 C         139.4160  137.6312  163.1083 C.2     1  UNL1        0.2622
     18 O         140.7497  137.0119  162.8114 O.2     1  UNL1       -0.2687
     19 H         138.4869  137.1661  161.2066 H       1  UNL1        0.1453
     20 H         137.4513  138.0022  162.2725 H       1  UNL1        0.1453
     21 C         140.7820  141.9715  167.2313 C.3     1  UNL1        0.0991
     22 C         140.5870  142.9738  166.1324 C.ar    1  UNL1       -0.0061
     23 C         141.6535  143.1668  165.0954 C.ar    1  UNL1       -0.0029
     24 C         141.4586  144.1690  163.9966 C.ar    1  UNL1       -0.0003
     25 C         140.1971  144.9782  163.9347 C.ar    1  UNL1       -0.0000
     26 C         139.1305  144.7852  164.9717 C.ar    1  UNL1       -0.0003
     27 C         139.3256  143.7829  166.0706 C.ar    1  UNL1       -0.0029
@<TRIPOS>BOND
     1    16    17   am
     2    17    18    2
     3    17    10    1
     4    10    11   ar
     5    11    12   ar
     6    12    13   ar
     7    13    14   ar
     8    14     9    1
     9     1     9    1
    10     1     2    1
    11     3     2    1
    12     3     4    1
    13     4     5    1
    14     6     5    1
    15     6     7    1
    16     6     8    1
    17     8    21    1
    18    21    22    1
    19    22    23   ar
    20    23    24   ar
    21    24    25   ar
    22    25    26   ar
    23    26    27   ar
    24    14    15   ar
    25    15    10   ar
    26     7     1    1
    27    27    22   ar
    28     8     3    1
    29    16    19    1
    30    16    20    1
@<TRIPOS>MOLECULE
*****
 27 30 0 0 0
SMALL
GASTEIGER

@<TRIPOS>ATOM
      1 C         140.1432  141.1563  166.6295 C.3     1  UNL1        0.1703
      2 C         140.5189  142.4382  167.3118 C.3     1  UNL1        0.0596
      3 C         140.3732  142.5668  168.7991 C.3     1  UNL1        0.0614
      4 C         140.0746  142.2547  170.2356 C.3     1  UNL1        0.0175
      5 C         139.5566  140.8487  170.3064 C.3     1  UNL1        0.0175
      6 C         139.5351  140.2919  168.9138 C.3     1  UNL1        0.0614
      7 C         139.6218  140.0030  167.4346 C.3     1  UNL1        0.0596
      8 N         140.0398  141.3537  167.9822 N.3     1  UNL1       -0.2713
      9 O         140.2889  141.0276  165.1421 O.3     1  UNL1       -0.4629
     10 C         139.2638  144.1313  162.8913 C.ar    1  UNL1        0.1564
     11 C         137.9113  143.6974  162.4092 C.ar    1  UNL1        0.1228
     12 N         137.3513  142.3736  162.8381 N.ar    1  UNL1       -0.2357
     13 C         138.1438  141.4837  163.7490 C.ar    1  UNL1        0.1564
     14 C         139.4963  141.9176  164.2311 C.ar    1  UNL1        0.2447
     15 N         140.0563  143.2413  163.8023 N.ar    1  UNL1       -0.2041
     16 N         141.1032  145.9581  163.0625 N.am    1  UNL1       -0.3240
     17 C         139.8237  145.4551  162.4625 C.2     1  UNL1        0.2622
     18 O         139.1042  146.2760  161.4336 O.2     1  UNL1       -0.2687
     19 H         141.4707  146.8270  162.7810 H       1  UNL1        0.1453
     20 H         141.5755  145.4194  163.7377 H       1  UNL1        0.1453
     21 C         140.1855  141.2251  166.4949 C.3     1  UNL1        0.0991
     22 C         141.2858  140.3838  165.9190 C.ar    1  UNL1       -0.0061
     23 C         141.0130  138.9646  165.5174 C.ar    1  UNL1       -0.0029
     24 C         142.1132  138.1234  164.9416 C.ar    1  UNL1       -0.0003
     25 C         143.4863  138.7013  164.7673 C.ar    1  UNL1       -0.0000
     26 C         143.7592  140.1207  165.1689 C.ar    1  UNL1       -0.0003
     27 C         142.6589  140.9618  165.7447 C.ar    1  UNL1       -0.0029
@<TRIPOS>BOND
     1    16    17   am
     2    17    18    2
     3    17    10    1
     4    10    11   ar
     5    11    12   ar
     6    12    13   ar
     7    13    14   ar
     8    14     9    1
     9     1     9    1
    10     1     2    1
    11     3     2    1
    12     3     4    1
    13     4     5    1
    14     6     5    1
    15     6     7    1
    16     6     8    1
    17     8    21    1
    18    21    22    1
    19    22    23   ar
    20    23    24   ar
    21    24    25   ar
    22    25    26   ar
    23    26    27   ar
    24    14    15   ar
    25    15    10   ar
    26     7     1    1
    27    27    22   ar
    28     8     3    1
    29    16    19    1
    30    16    20    1
@<TRIPOS>MOLECULE
*****
 27 30 0 0 0
SMALL
GASTEIGER

@<TRIPOS>ATOM
      1 C         141.4153  142.3499  165.9065 C.3     1  UNL1        0.1703
      2 C         140.3090  143.2312  165.4071 C.3     1  UNL1        0.0596
      3 C         140.6060  144.3213  164.4205 C.3     1  UNL1        0.0614
      4 C         141.3361  145.2381  163.4844 C.3     1  UNL1        0.0175
      5 C         142.7850  144.8499  163.4915 C.3     1  UNL1        0.0175
      6 C         142.9503  143.6931  164.4320 C.3     1  UNL1        0.0614
      7 C         142.8185  142.5587  165.4194 C.3     1  UNL1        0.0596
      8 N         141.6036  143.3664  165.0062 N.3     1  UNL1       -0.2713
      9 O         141.1183  141.2597  166.8932 O.3     1  UNL1       -0.4629
     10 C         139.4700  138.3047  164.8194 C.ar    1  UNL1        0.1564
     11 C         138.3758  137.8791  165.7530 C.ar    1  UNL1        0.1228
     12 N         138.1959  138.5804  167.0667 N.ar    1  UNL1       -0.2357
     13 C         139.1100  139.7072  167.4468 C.ar    1  UNL1        0.1564
     14 C         140.2041  140.1328  166.5131 C.ar    1  UNL1        0.2447
     15 N         140.3842  139.4316  165.1995 N.ar    1  UNL1       -0.2041
     16 N         138.5365  137.5963  162.5006 N.am    1  UNL1       -0.3240
     17 C         139.6499  137.6034  163.5057 C.2     1  UNL1        0.2622
     18 O         140.9434  136.9091  163.1971 O.2     1  UNL1       -0.2687
     19 H         138.6546  137.1360  161.6384 H       1  UNL1        0.1453
     20 H         137.6876  138.0519  162.7031 H       1  UNL1        0.1453
     21 C         141.3066  142.2763  165.9928 C.3     1  UNL1        0.0991
     22 C         141.6611  142.4567  167.4391 C.ar    1  UNL1       -0.0061
     23 C         140.6538  143.0276  168.3926 C.ar    1  UNL1       -0.0029
     24 C         141.0083  143.2079  169.8389 C.ar    1  UNL1       -0.0003
     25 C         142.3701  142.8173  170.3316 C.ar    1  UNL1       -0.0000
     26 C         143.3775  142.2464  169.3780 C.ar    1  UNL1       -0.0003
     27 C         143.0229  142.0661  167.9317 C.ar    1  UNL1       -0.0029
@<TRIPOS>BOND
     1    16    17   am
     2    17    18    2
     3    17    10    1
     4    10    11   ar
     5    11    12   ar
     6    12    13   ar
     7    13    14   ar
     8    14     9    1
     9     1     9    1
    10     1     2    1
    11     3     2    1
    12     3     4    1
    13     4     5    1
    14     6     5    1
    15     6     7    1
    16     6     8    1
    17     8    21    1
    18    21    22    1
    19    22    23   ar
    20    23    24   ar
    21    24    25   ar
    22    25    26   ar
    23    26    27   ar
    24    14    15   ar
    25    15    10   ar
    26     7     1    1
    27    27    22   ar
    28     8     3    1
    29    16    19    1
    30    16    20    1
@<TRIPOS>MOLECULE
*****
 27 30 0 0 0
SMALL
GASTEIGER

@<TRIPOS>ATOM
      1 C         140.1989  141.2924  166.4043 C.3     1  UNL1        0.1703
      2 C         139.4707  140.1337  167.0183 C.3     1  UNL1        0.0596
      3 C         139.2634  140.0799  168.5030 C.3     1  UNL1        0.0614
      4 C         139.2891  140.4326  169.9607 C.3     1  UNL1        0.0175
      5 C         140.0103  141.7394  170.1087 C.3     1  UNL1        0.0175
      6 C         140.4304  142.1945  168.7425 C.3     1  UNL1        0.0614
      7 C         140.7199  142.3973  167.2748 C.3     1  UNL1        0.0596
      8 N         139.9687  141.1688  167.7501 N.3     1  UNL1       -0.2713
      9 O         140.4063  141.3462  164.9196 O.3     1  UNL1       -0.4629
     10 C         143.9412  140.8217  163.1936 C.ar    1  UNL1        0.1564
     11 C         143.9783  139.3271  163.0720 C.ar    1  UNL1        0.1228
     12 N         142.8247  138.5056  163.5663 N.ar    1  UNL1       -0.2357
     13 C         141.6341  139.1786  164.1821 C.ar    1  UNL1        0.1564
     14 C         141.5970  140.6732  164.3037 C.ar    1  UNL1        0.2447
     15 N         142.7505  141.4947  163.8095 N.ar    1  UNL1       -0.2041
     16 N         146.3040  141.8359  163.5657 N.am    1  UNL1       -0.3240
     17 C         145.0947  141.6432  162.6993 C.2     1  UNL1        0.2622
     18 O         145.0391  142.2722  161.3386 O.2     1  UNL1       -0.2687
     19 H         147.0612  142.3751  163.2412 H       1  UNL1        0.1453
     20 H         146.3406  141.4231  164.4587 H       1  UNL1        0.1453
     21 C         140.1760  141.2226  166.2655 C.3     1  UNL1        0.0991
     22 C         139.3963  142.1978  165.4341 C.ar    1  UNL1       -0.0061
     23 C         139.8228  143.6343  165.3660 C.ar    1  UNL1       -0.0029
     24 C         139.0432  144.6094  164.5347 C.ar    1  UNL1       -0.0003
     25 C         137.8370  144.1482  163.7715 C.ar    1  UNL1       -0.0000
     26 C         137.4105  142.7116  163.8396 C.ar    1  UNL1       -0.0003
     27 C         138.1903  141.7365  164.6710 C.ar    1  UNL1       -0.0029
@<TRIPOS>BOND
     1    16    17   am
     2    17    18    2
     3    17    10    1
     4    10    11   ar
     5    11    12   ar
     6    12    13   ar
     7    13    14   ar
     8    14     9    1
     9     1     9    1
    10     1     2    1
    11     3     2    1
    12     3     4    1
    13     4     5    1
    14     6     5    1
    15     6     7    1
    16     6     8    1
    17     8    21    1
    18    21    22    1
    19    22    23   ar
    20    23    24   ar
    21    24    25   ar
    22    25    26   ar
    23    26    27   ar
    24    14    15   ar
    25    15    10   ar
    26     7     1    1
    27    27    22   ar
    28     8     3    1
    29    16    19    1
    30    16    20    1
@<TRIPOS>MOLECULE
*****
 27 30 0 0 0
SMALL
GASTEIGER

@<TRIPOS>ATOM
      1 C         140.3467  141.5977  165.0601 C.3     1  UNL1        0.1703
      2 C         140.9659  142.5804  164.1110 C.3     1  UNL1        0.0596
      3 C         140.0922  143.4527  163.2591 C.3     1  UNL1        0.0614
      4 C         138.8846  144.0873  162.6355 C.3     1  UNL1        0.0175
      5 C         137.6653  143.4562  163.2396 C.3     1  UNL1        0.0175
      6 C         138.1193  142.4315  164.2365 C.3     1  UNL1        0.0614
      7 C         138.8539  141.4872  165.1573 C.3     1  UNL1        0.0596
      8 N         139.6193  142.4293  164.2486 N.3     1  UNL1       -0.2713
      9 O         141.2203  140.7253  165.9122 O.3     1  UNL1       -0.4629
     10 C         141.4278  141.3944  169.8184 C.ar    1  UNL1        0.1564
     11 C         142.6815  142.2140  169.8994 C.ar    1  UNL1        0.1228
     12 N         143.4480  142.5373  168.6513 N.ar    1  UNL1       -0.2357
     13 C         142.9610  142.0411  167.3223 C.ar    1  UNL1        0.1564
     14 C         141.7074  141.2215  167.2413 C.ar    1  UNL1        0.2447
     15 N         140.9408  140.8981  168.4893 N.ar    1  UNL1       -0.2041
     16 N         140.0480  139.7130  171.2394 N.am    1  UNL1       -0.3240
     17 C         140.6612  141.0710  171.0665 C.2     1  UNL1        0.2622
     18 O         140.5079  142.1056  172.1418 O.2     1  UNL1       -0.2687
     19 H         139.5448  139.5008  172.0586 H       1  UNL1        0.1453
     20 H         140.1486  139.0340  170.5337 H       1  UNL1        0.1453
     21 C         140.4929  141.5570  165.1005 C.3     1  UNL1        0.0991
     22 C         140.6701  140.1080  164.7557 C.ar    1  UNL1       -0.0061
     23 C         139.6792  139.0939  165.2451 C.ar    1  UNL1       -0.0029
     24 C         139.8563  137.6450  164.9003 C.ar    1  UNL1       -0.0003
     25 C         141.0245  137.2100  164.0660 C.ar    1  UNL1       -0.0000
     26 C         142.0156  138.2241  163.5765 C.ar    1  UNL1       -0.0003
     27 C         141.8383  139.6731  163.9214 C.ar    1  UNL1       -0.0029
@<TRIPOS>BOND
     1    16    17   am
     2    17    18    2
     3    17    10    1
     4    10    11   ar
     5    11    12   ar
     6    12    13   ar
     7    13    14   ar
     8    14     9    1
     9     1     9    1
    10     1     2    1
    11     3     2    1
    12     3     4    1
    13     4     5    1
    14     6     5    1
    15     6     7    1
    16     6     8    1
    17     8    21    1
    18    21    22    1
    19    22    23   ar
    20    23    24   ar
    21    24    25   ar
    22    25    26   ar
    23    26    27   ar
    24    14    15   ar
    25    15    10   ar
    26     7     1    1
    27    27    22   ar
    28     8     3    1
    29    16    19    1
    30    16    20    1
