@<TRIPOS>MOLECULE
*****
 33 36 0 0 0
SMALL
GASTEIGER

@<TRIPOS>ATOM
      1 C         140.3172  139.1992  164.2561 C.ar    1  UNL1        0.2281
      2 C         140.0017  139.2727  162.7915 C.ar    1  UNL1        0.0832
      3 C         139.3489  140.5965  162.5238 C.ar    1  UNL1        0.1593
      4 N         139.2609  141.3411  163.8229 N.ar    1  UNL1       -0.1579
      5 N         139.8594  140.4776  164.8936 N.ar    1  UNL1       -0.1980
      6 C         138.8684  141.0891  161.1910 C.2     1  UNL1        0.2687
      7 O         137.7228  140.4040  160.5067 O.2     1  UNL1       -0.2682
      8 N         139.5335  142.2669  160.5424 N.am    1  UNL1       -0.2734
      9 C         139.0530  142.7595  159.2096 C.3     1  UNL1        0.0939
     10 C         139.7180  143.9372  158.5611 C.3     1  UNL1        0.0229
     11 C         140.8636  144.6223  159.2455 C.3     1  UNL1        0.0190
     12 C         141.3441  144.1297  160.5783 C.3     1  UNL1        0.0710
     13 N         142.4897  144.8148  161.2626 N.3     1  UNL1       -0.3208
     14 C         140.6790  142.9520  161.2268 C.3     1  UNL1        0.1091
     15 H         142.2901  144.8971  162.2595 H       1  UNL1        0.1189
     16 H         142.6171  145.7448  160.8635 H       1  UNL1        0.1189
     17 C         139.9790  140.8305  166.3466 C.ar    1  UNL1        0.0859
     18 C         140.6680  142.0983  166.7562 C.ar    1  UNL1        0.0199
     19 C         140.7877  142.4513  168.2092 C.ar    1  UNL1        0.0118
     20 C         140.2183  141.5362  169.2526 C.ar    1  UNL1        0.0685
     21 C         139.5294  140.2683  168.8429 C.ar    1  UNL1        0.0118
     22 C         139.4097  139.9154  167.3899 C.ar    1  UNL1        0.0199
     23 C         140.3380  141.8890  170.7056 C.1     1  UNL1        0.1004
     24 N         140.4576  142.2418  172.1585 N.1     1  UNL1       -0.1908
     25 O         140.9750  138.0494  164.9597 O.3     1  UNL1       -0.4516
     26 C         142.4617  138.0431  165.1585 C.3     1  UNL1        0.2734
     27 C         144.4897  141.1949  164.1491 C.ar    1  UNL1        0.1004
     28 C         143.6121  140.4555  165.1151 C.ar    1  UNL1        0.0574
     29 C         143.3072  139.1094  164.5277 C.ar    1  UNL1        0.1980
     30 O         143.9964  139.0169  163.1985 O.2     1  UNL1       -0.3543
     31 N         144.7272  140.3058  162.9646 N.ar    1  UNL1       -0.0816
     32 C         144.4531  143.4798  165.3852 C.3     1  UNL1        0.0068
     33 C         145.0342  142.5801  164.3349 C.3     1  UNL1        0.0493
@<TRIPOS>BOND
     1    32    33    1
     2    33    27    1
     3    27    28   ar
     4    28    29   ar
     5    29    26    1
     6    26    25    1
     7    25     1    1
     8     1     2   ar
     9     2     3   ar
    10     3     6    1
    11     6     7    2
    12     6     8   am
    13     8     9    1
    14     9    10    1
    15    10    11    1
    16    11    12    1
    17    12    13    1
    18    12    14    1
    19     3     4   ar
    20     4     5   ar
    21     5    17    1
    22    17    18   ar
    23    18    19   ar
    24    19    20   ar
    25    20    23    1
    26    23    24    3
    27    20    21   ar
    28    21    22   ar
    29    29    30   ar
    30    30    31   ar
    31    31    27   ar
    32     5     1   ar
    33    22    17   ar
    34    14     8    1
    35    13    15    1
    36    13    16    1
@<TRIPOS>MOLECULE
*****
 33 36 0 0 0
SMALL
GASTEIGER

@<TRIPOS>ATOM
      1 C         138.5443  141.6513  163.8897 C.ar    1  UNL1        0.2281
      2 C         138.6349  141.0819  162.5050 C.ar    1  UNL1        0.0832
      3 C         139.6373  139.9662  162.5272 C.ar    1  UNL1        0.1593
      4 N         140.1661  139.8460  163.9257 N.ar    1  UNL1       -0.1579
      5 N         139.4907  140.8874  164.7678 N.ar    1  UNL1       -0.1980
      6 C         140.0400  139.1193  161.3565 C.2     1  UNL1        0.2687
      7 O         139.2004  137.9418  160.9584 O.2     1  UNL1       -0.2682
      8 N         141.2825  139.4500  160.5838 N.am    1  UNL1       -0.2734
      9 C         141.6853  138.6032  159.4131 C.3     1  UNL1        0.0939
     10 C         142.9277  138.9338  158.6404 C.3     1  UNL1        0.0229
     11 C         143.7673  140.1114  159.0385 C.3     1  UNL1        0.0190
     12 C         143.3645  140.9582  160.2092 C.3     1  UNL1        0.0710
     13 N         144.2042  142.1357  160.6072 N.3     1  UNL1       -0.3208
     14 C         142.1221  140.6275  160.9818 C.3     1  UNL1        0.1091
     15 H         143.5978  142.9190  160.8504 H       1  UNL1        0.1189
     16 H         144.8075  142.4017  159.8290 H       1  UNL1        0.1189
     17 C         139.7211  141.1236  166.2311 C.ar    1  UNL1        0.0859
     18 C         139.3566  140.0640  167.2283 C.ar    1  UNL1        0.0199
     19 C         139.5869  140.3001  168.6916 C.ar    1  UNL1        0.0118
     20 C         140.1819  141.5959  169.1576 C.ar    1  UNL1        0.0685
     21 C         140.5464  142.6554  168.1604 C.ar    1  UNL1        0.0118
     22 C         140.3160  142.4193  166.6971 C.ar    1  UNL1        0.0199
     23 C         140.4123  141.8320  170.6209 C.1     1  UNL1        0.1004
     24 N         140.6427  142.0681  172.0841 N.1     1  UNL1       -0.1908
     25 O         137.6622  142.7854  164.3207 O.3     1  UNL1       -0.4516
     26 C         138.1047  144.2026  164.1075 C.3     1  UNL1        0.2734
     27 C         141.8074  144.9189  163.1896 C.ar    1  UNL1        0.1004
     28 C         140.7385  144.6476  164.2064 C.ar    1  UNL1        0.0574
     29 C         139.4368  144.4859  163.4789 C.ar    1  UNL1        0.1980
     30 O         139.7012  144.6572  162.0123 O.2     1  UNL1       -0.3543
     31 N         141.1663  144.9248  161.8335 N.ar    1  UNL1       -0.0816
     32 C         143.9895  144.2337  164.4219 C.3     1  UNL1        0.0068
     33 C         143.2619  145.1446  163.4781 C.3     1  UNL1        0.0493
@<TRIPOS>BOND
     1    32    33    1
     2    33    27    1
     3    27    28   ar
     4    28    29   ar
     5    29    26    1
     6    26    25    1
     7    25     1    1
     8     1     2   ar
     9     2     3   ar
    10     3     6    1
    11     6     7    2
    12     6     8   am
    13     8     9    1
    14     9    10    1
    15    10    11    1
    16    11    12    1
    17    12    13    1
    18    12    14    1
    19     3     4   ar
    20     4     5   ar
    21     5    17    1
    22    17    18   ar
    23    18    19   ar
    24    19    20   ar
    25    20    23    1
    26    23    24    3
    27    20    21   ar
    28    21    22   ar
    29    29    30   ar
    30    30    31   ar
    31    31    27   ar
    32     5     1   ar
    33    22    17   ar
    34    14     8    1
    35    13    15    1
    36    13    16    1
@<TRIPOS>MOLECULE
*****
 33 36 0 0 0
SMALL
GASTEIGER

@<TRIPOS>ATOM
      1 C         143.2382  138.7855  161.4928 C.ar    1  UNL1        0.2281
      2 C         143.7561  138.8276  160.0857 C.ar    1  UNL1        0.0832
      3 C         142.6009  138.5889  159.1591 C.ar    1  UNL1        0.1593
      4 N         141.3689  138.3993  159.9936 N.ar    1  UNL1       -0.1579
      5 N         141.7628  138.5207  161.4359 N.ar    1  UNL1       -0.1980
      6 C         142.6661  138.5472  157.6612 C.2     1  UNL1        0.2687
      7 O         142.5607  139.8173  156.8702 O.2     1  UNL1       -0.2682
      8 N         142.8368  137.2353  156.9541 N.am    1  UNL1       -0.2734
      9 C         142.9021  137.1936  155.4561 C.3     1  UNL1        0.0939
     10 C         143.0727  135.8817  154.7492 C.3     1  UNL1        0.0229
     11 C         143.1782  134.6116  155.5401 C.3     1  UNL1        0.0190
     12 C         143.1129  134.6533  157.0381 C.3     1  UNL1        0.0710
     13 N         143.2184  133.3832  157.8291 N.3     1  UNL1       -0.3208
     14 C         142.9422  135.9652  157.7451 C.3     1  UNL1        0.1091
     15 H         143.8083  133.5396  158.6464 H       1  UNL1        0.1189
     16 H         143.6300  132.6535  157.2473 H       1  UNL1        0.1189
     17 C         140.8428  138.3989  162.6143 C.ar    1  UNL1        0.0859
     18 C         139.6912  139.3477  162.7681 C.ar    1  UNL1        0.0199
     19 C         138.7712  139.2259  163.9466 C.ar    1  UNL1        0.0118
     20 C         139.0027  138.1551  164.9713 C.ar    1  UNL1        0.0685
     21 C         140.1543  137.2063  164.8174 C.ar    1  UNL1        0.0118
     22 C         141.0743  137.3282  163.6390 C.ar    1  UNL1        0.0199
     23 C         138.0827  138.0333  166.1497 C.1     1  UNL1        0.1004
     24 N         137.1628  137.9114  167.3281 N.1     1  UNL1       -0.1908
     25 O         144.0525  138.9749  162.7381 O.3     1  UNL1       -0.4516
     26 C         143.8240  140.1749  163.6085 C.3     1  UNL1        0.2734
     27 C         141.4082  140.3858  166.6391 C.ar    1  UNL1        0.1004
     28 C         141.8636  140.8607  165.2911 C.ar    1  UNL1        0.0574
     29 C         143.0509  140.0382  164.8866 C.ar    1  UNL1        0.1980
     30 O         143.3294  139.0549  165.9846 O.2     1  UNL1       -0.3543
     31 N         142.3142  139.2698  167.0678 N.ar    1  UNL1       -0.0816
     32 C         139.8060  140.2461  168.6795 C.3     1  UNL1        0.0068
     33 C         140.2503  140.9312  167.4212 C.3     1  UNL1        0.0493
@<TRIPOS>BOND
     1    32    33    1
     2    33    27    1
     3    27    28   ar
     4    28    29   ar
     5    29    26    1
     6    26    25    1
     7    25     1    1
     8     1     2   ar
     9     2     3   ar
    10     3     6    1
    11     6     7    2
    12     6     8   am
    13     8     9    1
    14     9    10    1
    15    10    11    1
    16    11    12    1
    17    12    13    1
    18    12    14    1
    19     3     4   ar
    20     4     5   ar
    21     5    17    1
    22    17    18   ar
    23    18    19   ar
    24    19    20   ar
    25    20    23    1
    26    23    24    3
    27    20    21   ar
    28    21    22   ar
    29    29    30   ar
    30    30    31   ar
    31    31    27   ar
    32     5     1   ar
    33    22    17   ar
    34    14     8    1
    35    13    15    1
    36    13    16    1
@<TRIPOS>MOLECULE
*****
 33 36 0 0 0
SMALL
GASTEIGER

@<TRIPOS>ATOM
      1 C         143.2567  141.5094  163.6504 C.ar    1  UNL1        0.2281
      2 C         143.9420  142.0835  162.4459 C.ar    1  UNL1        0.0832
      3 C         143.0153  141.9438  161.2747 C.ar    1  UNL1        0.1593
      4 N         141.7572  141.2834  161.7553 N.ar    1  UNL1       -0.1579
      5 N         141.9064  141.0149  163.2235 N.ar    1  UNL1       -0.1980
      6 C         143.2971  142.3868  159.8696 C.2     1  UNL1        0.2687
      7 O         144.3452  141.6849  159.0579 O.2     1  UNL1       -0.2682
      8 N         142.5309  143.5318  159.2762 N.am    1  UNL1       -0.2734
      9 C         142.8128  143.9748  157.8712 C.3     1  UNL1        0.0939
     10 C         142.0466  145.1197  157.2778 C.3     1  UNL1        0.0229
     11 C         140.9985  145.8216  158.0896 C.3     1  UNL1        0.0190
     12 C         140.7167  145.3786  159.4947 C.3     1  UNL1        0.0710
     13 N         139.6687  146.0805  160.3064 N.3     1  UNL1       -0.3208
     14 C         141.4829  144.2337  160.0880 C.3     1  UNL1        0.1091
     15 H         139.1265  145.3928  160.8294 H       1  UNL1        0.1189
     16 H         139.0492  146.6007  159.6851 H       1  UNL1        0.1189
     17 C         140.8847  140.3658  164.1094 C.ar    1  UNL1        0.0859
     18 C         139.7256  141.1644  164.6277 C.ar    1  UNL1        0.0199
     19 C         138.7038  140.5154  165.5136 C.ar    1  UNL1        0.0118
     20 C         138.8412  139.0676  165.8812 C.ar    1  UNL1        0.0685
     21 C         140.0003  138.2690  165.3629 C.ar    1  UNL1        0.0118
     22 C         141.0220  138.9180  164.4770 C.ar    1  UNL1        0.0199
     23 C         137.8195  138.4185  166.7671 C.1     1  UNL1        0.1004
     24 N         136.7978  137.7695  167.6530 N.1     1  UNL1       -0.1908
     25 O         143.8224  141.4417  165.0380 O.3     1  UNL1       -0.4516
     26 C         143.4917  142.5117  166.0357 C.3     1  UNL1        0.2734
     27 C         141.7007  141.1234  169.1870 C.ar    1  UNL1        0.1004
     28 C         141.8517  141.2097  167.6971 C.ar    1  UNL1        0.0574
     29 C         142.9926  142.1370  167.3997 C.ar    1  UNL1        0.1980
     30 O         143.5467  142.6238  168.7059 O.2     1  UNL1       -0.3543
     31 N         142.7483  141.9974  169.8104 N.ar    1  UNL1       -0.0816
     32 C         139.2331  140.3921  169.5421 C.3     1  UNL1        0.0068
     33 C         140.6812  140.3066  169.9240 C.3     1  UNL1        0.0493
@<TRIPOS>BOND
     1    32    33    1
     2    33    27    1
     3    27    28   ar
     4    28    29   ar
     5    29    26    1
     6    26    25    1
     7    25     1    1
     8     1     2   ar
     9     2     3   ar
    10     3     6    1
    11     6     7    2
    12     6     8   am
    13     8     9    1
    14     9    10    1
    15    10    11    1
    16    11    12    1
    17    12    13    1
    18    12    14    1
    19     3     4   ar
    20     4     5   ar
    21     5    17    1
    22    17    18   ar
    23    18    19   ar
    24    19    20   ar
    25    20    23    1
    26    23    24    3
    27    20    21   ar
    28    21    22   ar
    29    29    30   ar
    30    30    31   ar
    31    31    27   ar
    32     5     1   ar
    33    22    17   ar
    34    14     8    1
    35    13    15    1
    36    13    16    1
@<TRIPOS>MOLECULE
*****
 33 36 0 0 0
SMALL
GASTEIGER

@<TRIPOS>ATOM
      1 C         143.2781  141.3801  163.8596 C.ar    1  UNL1        0.2281
      2 C         143.2104  141.7173  162.3996 C.ar    1  UNL1        0.0832
      3 C         142.1159  142.7248  162.2068 C.ar    1  UNL1        0.1593
      4 N         141.5072  143.0102  163.5476 N.ar    1  UNL1       -0.1579
      5 N         142.2254  142.1792  164.5691 N.ar    1  UNL1       -0.1980
      6 C         141.7028  143.3390  160.9022 C.2     1  UNL1        0.2687
      7 O         142.4316  144.5389  160.3739 O.2     1  UNL1       -0.2682
      8 N         140.5607  142.7533  160.1258 N.am    1  UNL1       -0.2734
      9 C         140.1475  143.3675  158.8212 C.3     1  UNL1        0.0939
     10 C         139.0055  142.7818  158.0449 C.3     1  UNL1        0.0229
     11 C         138.2767  141.5820  158.5731 C.3     1  UNL1        0.0190
     12 C         138.6898  140.9678  159.8777 C.3     1  UNL1        0.0710
     13 N         137.9610  139.7679  160.4060 N.3     1  UNL1       -0.3208
     14 C         139.8318  141.5534  160.6540 C.3     1  UNL1        0.1091
     15 H         138.6326  139.1065  160.7958 H       1  UNL1        0.1189
     16 H         137.4457  139.3217  159.6471 H       1  UNL1        0.1189
     17 C         141.9410  142.1520  166.0417 C.ar    1  UNL1        0.0859
     18 C         143.0657  142.2837  167.0254 C.ar    1  UNL1        0.0199
     19 C         142.7813  142.2565  168.4979 C.ar    1  UNL1        0.0118
     20 C         141.3720  142.0975  168.9868 C.ar    1  UNL1        0.0685
     21 C         140.2473  141.9658  168.0031 C.ar    1  UNL1        0.0118
     22 C         140.5318  141.9930  166.5305 C.ar    1  UNL1        0.0199
     23 C         141.0876  142.0703  170.4593 C.1     1  UNL1        0.1004
     24 N         140.8031  142.0431  171.9318 N.1     1  UNL1       -0.1908
     25 O         144.2311  140.4135  164.4980 O.3     1  UNL1       -0.4516
     26 C         143.9236  138.9454  164.4963 C.3     1  UNL1        0.2734
     27 C         140.1667  137.9840  164.6601 C.ar    1  UNL1        0.1004
     28 C         141.3957  138.5769  165.2831 C.ar    1  UNL1        0.0574
     29 C         142.5146  138.4744  164.2893 C.ar    1  UNL1        0.1980
     30 O         141.9771  137.8181  163.0522 O.2     1  UNL1       -0.3543
     31 N         140.5260  137.5151  163.2814 N.ar    1  UNL1       -0.0816
     32 C         138.3962  138.8820  166.3361 C.3     1  UNL1        0.0068
     33 C         138.8156  137.8786  165.3031 C.3     1  UNL1        0.0493
@<TRIPOS>BOND
     1    32    33    1
     2    33    27    1
     3    27    28   ar
     4    28    29   ar
     5    29    26    1
     6    26    25    1
     7    25     1    1
     8     1     2   ar
     9     2     3   ar
    10     3     6    1
    11     6     7    2
    12     6     8   am
    13     8     9    1
    14     9    10    1
    15    10    11    1
    16    11    12    1
    17    12    13    1
    18    12    14    1
    19     3     4   ar
    20     4     5   ar
    21     5    17    1
    22    17    18   ar
    23    18    19   ar
    24    19    20   ar
    25    20    23    1
    26    23    24    3
    27    20    21   ar
    28    21    22   ar
    29    29    30   ar
    30    30    31   ar
    31    31    27   ar
    32     5     1   ar
    33    22    17   ar
    34    14     8    1
    35    13    15    1
    36    13    16    1
@<TRIPOS>MOLECULE
*****
 33 36 0 0 0
SMALL
GASTEIGER

@<TRIPOS>ATOM
      1 C         141.1710  139.1091  163.9226 C.ar    1  UNL1        0.2281
      2 C         141.5784  138.9621  162.4865 C.ar    1  UNL1        0.0832
      3 C         142.7557  139.8595  162.2445 C.ar    1  UNL1        0.1593
      4 N         143.0760  140.5611  163.5310 N.ar    1  UNL1       -0.1579
      5 N         142.0966  140.0973  164.5681 N.ar    1  UNL1       -0.1980
      6 C         143.4848  140.0260  160.9442 C.2     1  UNL1        0.2687
      7 O         144.4009  138.9441  160.4541 O.2     1  UNL1       -0.2682
      8 N         143.2979  141.2745  160.1340 N.am    1  UNL1       -0.2734
      9 C         144.0269  141.4411  158.8338 C.3     1  UNL1        0.0939
     10 C         143.8399  142.6895  158.0237 C.3     1  UNL1        0.0229
     11 C         142.9239  143.7715  158.5138 C.3     1  UNL1        0.0190
     12 C         142.1948  143.6049  159.8141 C.3     1  UNL1        0.0710
     13 N         141.2787  144.6868  160.3042 N.3     1  UNL1       -0.3208
     14 C         142.3818  142.3565  160.6242 C.3     1  UNL1        0.1091
     15 H         140.4349  144.2670  160.6942 H       1  UNL1        0.1189
     16 H         141.0267  145.2971  159.5267 H       1  UNL1        0.1189
     17 C         142.0508  140.5435  165.9995 C.ar    1  UNL1        0.0859
     18 C         141.5543  141.9170  166.3415 C.ar    1  UNL1        0.0199
     19 C         141.5085  142.3632  167.7729 C.ar    1  UNL1        0.0118
     20 C         141.9591  141.4357  168.8623 C.ar    1  UNL1        0.0685
     21 C         142.4556  140.0622  168.5203 C.ar    1  UNL1        0.0118
     22 C         142.5014  139.6161  167.0889 C.ar    1  UNL1        0.0199
     23 C         141.9133  141.8819  170.2937 C.1     1  UNL1        0.1004
     24 N         141.8675  142.3280  171.7250 N.1     1  UNL1       -0.1908
     25 O         140.0371  138.3935  164.5950 O.3     1  UNL1       -0.4516
     26 C         138.6213  138.6961  164.2028 C.3     1  UNL1        0.2734
     27 C         137.8194  142.4917  164.0792 C.ar    1  UNL1        0.1004
     28 C         138.3465  141.2868  164.8006 C.ar    1  UNL1        0.0574
     29 C         138.2155  140.1050  163.8863 C.ar    1  UNL1        0.1980
     30 O         137.6074  140.5795  162.5997 O.2     1  UNL1       -0.3543
     31 N         137.3626  142.0546  162.7190 N.ar    1  UNL1       -0.0816
     32 C         139.0120  144.5616  165.1006 C.3     1  UNL1        0.0068
     33 C         137.7596  143.8885  164.6226 C.3     1  UNL1        0.0493
@<TRIPOS>BOND
     1    32    33    1
     2    33    27    1
     3    27    28   ar
     4    28    29   ar
     5    29    26    1
     6    26    25    1
     7    25     1    1
     8     1     2   ar
     9     2     3   ar
    10     3     6    1
    11     6     7    2
    12     6     8   am
    13     8     9    1
    14     9    10    1
    15    10    11    1
    16    11    12    1
    17    12    13    1
    18    12    14    1
    19     3     4   ar
    20     4     5   ar
    21     5    17    1
    22    17    18   ar
    23    18    19   ar
    24    19    20   ar
    25    20    23    1
    26    23    24    3
    27    20    21   ar
    28    21    22   ar
    29    29    30   ar
    30    30    31   ar
    31    31    27   ar
    32     5     1   ar
    33    22    17   ar
    34    14     8    1
    35    13    15    1
    36    13    16    1
@<TRIPOS>MOLECULE
*****
 33 36 0 0 0
SMALL
GASTEIGER

@<TRIPOS>ATOM
      1 C         140.5131  138.3966  164.3004 C.ar    1  UNL1        0.2281
      2 C         140.6592  137.7914  162.9357 C.ar    1  UNL1        0.0832
      3 C         141.8990  138.3562  162.3083 C.ar    1  UNL1        0.1593
      4 N         142.5193  139.3106  163.2852 N.ar    1  UNL1       -0.1579
      5 N         141.6628  139.3356  164.5164 N.ar    1  UNL1       -0.1980
      6 C         142.4261  138.0249  160.9437 C.2     1  UNL1        0.2687
      7 O         143.7747  137.3851  160.7955 O.2     1  UNL1       -0.2682
      8 N         141.6046  138.3334  159.7271 N.am    1  UNL1       -0.2734
      9 C         142.1316  138.0021  158.3624 C.3     1  UNL1        0.0939
     10 C         141.3101  138.3106  157.1459 C.3     1  UNL1        0.0229
     11 C         139.9615  138.9505  157.2941 C.3     1  UNL1        0.0190
     12 C         139.4345  139.2818  158.6588 C.3     1  UNL1        0.0710
     13 N         138.0859  139.9216  158.8070 N.3     1  UNL1       -0.3208
     14 C         140.2560  138.9733  159.8753 C.3     1  UNL1        0.1091
     15 H         137.5932  139.4980  159.5932 H       1  UNL1        0.1189
     16 H         137.5471  139.7810  157.9524 H       1  UNL1        0.1189
     17 C         141.9122  140.1556  165.7474 C.ar    1  UNL1        0.0859
     18 C         142.3494  139.4880  167.0175 C.ar    1  UNL1        0.0199
     19 C         142.5988  140.3079  168.2486 C.ar    1  UNL1        0.0118
     20 C         142.4109  141.7956  168.2095 C.ar    1  UNL1        0.0685
     21 C         141.9736  142.4633  166.9395 C.ar    1  UNL1        0.0118
     22 C         141.7243  141.6433  165.7084 C.ar    1  UNL1        0.0199
     23 C         142.6602  142.6156  169.4406 C.1     1  UNL1        0.1004
     24 N         142.9096  143.4356  170.6715 N.1     1  UNL1       -0.1908
     25 O         139.4110  138.1128  165.2775 O.3     1  UNL1       -0.4516
     26 C         138.4139  139.1814  165.6146 C.3     1  UNL1        0.2734
     27 C         137.7935  142.4142  163.5580 C.ar    1  UNL1        0.1004
     28 C         138.2303  141.7261  164.8173 C.ar    1  UNL1        0.0574
     29 C         138.0885  140.2472  164.6106 C.ar    1  UNL1        0.1980
     30 O         137.5640  140.0213  163.2235 O.2     1  UNL1       -0.3543
     31 N         137.3817  141.3605  162.5730 N.ar    1  UNL1       -0.0816
     32 C         138.9416  144.7375  163.7416 C.3     1  UNL1        0.0068
     33 C         137.7722  143.8957  163.3247 C.3     1  UNL1        0.0493
@<TRIPOS>BOND
     1    32    33    1
     2    33    27    1
     3    27    28   ar
     4    28    29   ar
     5    29    26    1
     6    26    25    1
     7    25     1    1
     8     1     2   ar
     9     2     3   ar
    10     3     6    1
    11     6     7    2
    12     6     8   am
    13     8     9    1
    14     9    10    1
    15    10    11    1
    16    11    12    1
    17    12    13    1
    18    12    14    1
    19     3     4   ar
    20     4     5   ar
    21     5    17    1
    22    17    18   ar
    23    18    19   ar
    24    19    20   ar
    25    20    23    1
    26    23    24    3
    27    20    21   ar
    28    21    22   ar
    29    29    30   ar
    30    30    31   ar
    31    31    27   ar
    32     5     1   ar
    33    22    17   ar
    34    14     8    1
    35    13    15    1
    36    13    16    1
@<TRIPOS>MOLECULE
*****
 33 36 0 0 0
SMALL
GASTEIGER

@<TRIPOS>ATOM
      1 C         141.2309  138.9624  161.4247 C.ar    1  UNL1        0.2281
      2 C         141.3582  139.4540  160.0133 C.ar    1  UNL1        0.0832
      3 C         142.2709  140.6444  160.0176 C.ar    1  UNL1        0.1593
      4 N         142.7076  140.8886  161.4316 N.ar    1  UNL1       -0.1579
      5 N         142.0649  139.8491  162.3013 N.ar    1  UNL1       -0.1980
      6 C         142.6757  141.4493  158.8183 C.2     1  UNL1        0.2687
      7 O         143.5926  140.8548  157.7907 O.2     1  UNL1       -0.2682
      8 N         142.1637  142.8488  158.6466 N.am    1  UNL1       -0.2734
      9 C         142.5686  143.6537  157.4474 C.3     1  UNL1        0.0939
     10 C         142.0566  145.0531  157.2758 C.3     1  UNL1        0.0229
     11 C         141.1398  145.6476  158.3034 C.3     1  UNL1        0.0190
     12 C         140.7349  144.8427  159.5026 C.3     1  UNL1        0.0710
     13 N         139.8181  145.4372  160.5302 N.3     1  UNL1       -0.3208
     14 C         141.2469  143.4433  159.6743 C.3     1  UNL1        0.1091
     15 H         139.1375  144.7368  160.8246 H       1  UNL1        0.1189
     16 H         139.3301  146.2375  160.1281 H       1  UNL1        0.1189
     17 C         142.2275  139.7191  163.7868 C.ar    1  UNL1        0.0859
     18 C         141.7598  140.8201  164.6918 C.ar    1  UNL1        0.0199
     19 C         141.9224  140.6902  166.1772 C.ar    1  UNL1        0.0118
     20 C         142.5528  139.4590  166.7578 C.ar    1  UNL1        0.0685
     21 C         143.0205  138.3580  165.8529 C.ar    1  UNL1        0.0118
     22 C         142.8579  138.4880  164.3674 C.ar    1  UNL1        0.0199
     23 C         142.7155  139.3290  168.2433 C.1     1  UNL1        0.1004
     24 N         142.8781  139.1990  169.7287 N.1     1  UNL1       -0.1908
     25 O         140.4132  137.7901  161.8797 O.3     1  UNL1       -0.4516
     26 C         138.9975  137.9934  162.3317 C.3     1  UNL1        0.2734
     27 C         138.3993  139.2536  165.9538 C.ar    1  UNL1        0.1004
     28 C         138.7399  138.1583  164.9872 C.ar    1  UNL1        0.0574
     29 C         138.7157  138.7370  163.6035 C.ar    1  UNL1        0.1980
     30 O         138.3602  140.1901  163.7151 O.2     1  UNL1       -0.3543
     31 N         138.1647  140.5093  165.1676 N.ar    1  UNL1       -0.0816
     32 C         139.1436  139.9948  168.3301 C.3     1  UNL1        0.0068
     33 C         138.3093  139.1171  167.4449 C.3     1  UNL1        0.0493
@<TRIPOS>BOND
     1    32    33    1
     2    33    27    1
     3    27    28   ar
     4    28    29   ar
     5    29    26    1
     6    26    25    1
     7    25     1    1
     8     1     2   ar
     9     2     3   ar
    10     3     6    1
    11     6     7    2
    12     6     8   am
    13     8     9    1
    14     9    10    1
    15    10    11    1
    16    11    12    1
    17    12    13    1
    18    12    14    1
    19     3     4   ar
    20     4     5   ar
    21     5    17    1
    22    17    18   ar
    23    18    19   ar
    24    19    20   ar
    25    20    23    1
    26    23    24    3
    27    20    21   ar
    28    21    22   ar
    29    29    30   ar
    30    30    31   ar
    31    31    27   ar
    32     5     1   ar
    33    22    17   ar
    34    14     8    1
    35    13    15    1
    36    13    16    1
@<TRIPOS>MOLECULE
*****
 33 36 0 0 0
SMALL
GASTEIGER

@<TRIPOS>ATOM
      1 C         139.3331  140.1115  163.5419 C.ar    1  UNL1        0.2281
      2 C         139.8491  139.6866  162.1991 C.ar    1  UNL1        0.0832
      3 C         141.3430  139.5848  162.2876 C.ar    1  UNL1        0.1593
      4 N         141.7503  139.9469  163.6851 N.ar    1  UNL1       -0.1579
      5 N         140.5081  140.2724  164.4603 N.ar    1  UNL1       -0.1980
      6 C         142.2674  139.1903  161.1742 C.2     1  UNL1        0.2687
      7 O         142.6462  137.7509  160.9883 O.2     1  UNL1       -0.2682
      8 N         142.8130  140.2352  160.2465 N.am    1  UNL1       -0.2734
      9 C         143.7374  139.8407  159.1330 C.3     1  UNL1        0.0939
     10 C         144.2830  140.8856  158.2054 C.3     1  UNL1        0.0229
     11 C         143.9042  142.3250  158.3913 C.3     1  UNL1        0.0190
     12 C         142.9798  142.7196  159.5048 C.3     1  UNL1        0.0710
     13 N         142.6011  144.1590  159.6907 N.3     1  UNL1       -0.3208
     14 C         142.4343  141.6747  160.4324 C.3     1  UNL1        0.1091
     15 H         141.6079  144.2231  159.9143 H       1  UNL1        0.1189
     16 H         142.7899  144.6741  158.8307 H       1  UNL1        0.1189
     17 C         140.4510  140.6862  165.9010 C.ar    1  UNL1        0.0859
     18 C         139.9622  139.7208  166.9398 C.ar    1  UNL1        0.0199
     19 C         139.9050  140.1345  168.3805 C.ar    1  UNL1        0.0118
     20 C         140.3366  141.5138  168.7824 C.ar    1  UNL1        0.0685
     21 C         140.8254  142.4792  167.7436 C.ar    1  UNL1        0.0118
     22 C         140.8825  142.0654  166.3029 C.ar    1  UNL1        0.0199
     23 C         140.2795  141.9275  170.2231 C.1     1  UNL1        0.1004
     24 N         140.2223  142.3413  171.6637 N.1     1  UNL1       -0.1908
     25 O         137.8946  140.3361  163.9029 O.3     1  UNL1       -0.4516
     26 C         137.2111  141.6100  163.5031 C.3     1  UNL1        0.2734
     27 C         139.2230  144.9052  163.1038 C.ar    1  UNL1        0.1004
     28 C         138.6527  143.6409  162.5325 C.ar    1  UNL1        0.0574
     29 C         137.9308  142.9197  163.6319 C.ar    1  UNL1        0.1980
     30 O         138.0550  143.7383  164.8828 O.2     1  UNL1       -0.3543
     31 N         138.8536  144.9653  164.5564 N.ar    1  UNL1       -0.0816
     32 C         139.8899  146.0408  160.8643 C.3     1  UNL1        0.0068
     33 C         140.0224  145.9294  162.3543 C.3     1  UNL1        0.0493
@<TRIPOS>BOND
     1    32    33    1
     2    33    27    1
     3    27    28   ar
     4    28    29   ar
     5    29    26    1
     6    26    25    1
     7    25     1    1
     8     1     2   ar
     9     2     3   ar
    10     3     6    1
    11     6     7    2
    12     6     8   am
    13     8     9    1
    14     9    10    1
    15    10    11    1
    16    11    12    1
    17    12    13    1
    18    12    14    1
    19     3     4   ar
    20     4     5   ar
    21     5    17    1
    22    17    18   ar
    23    18    19   ar
    24    19    20   ar
    25    20    23    1
    26    23    24    3
    27    20    21   ar
    28    21    22   ar
    29    29    30   ar
    30    30    31   ar
    31    31    27   ar
    32     5     1   ar
    33    22    17   ar
    34    14     8    1
    35    13    15    1
    36    13    16    1
