@<TRIPOS>MOLECULE
*****
 31 33 0 0 0
SMALL
GASTEIGER

@<TRIPOS>ATOM
      1 C         140.3597  138.5449  163.2803 C.ar    1  UNL1        0.1005
      2 C         139.0906  137.7970  163.5631 C.ar    1  UNL1        0.1193
      3 N         138.4458  137.8977  164.9137 N.ar    1  UNL1       -0.2265
      4 C         139.0701  138.7462  165.9815 C.ar    1  UNL1        0.1433
      5 N         138.4253  138.8468  167.3321 N.pl3   1  UNL1       -0.3414
      6 C         140.3392  139.4941  165.6986 C.ar    1  UNL1        0.1138
      7 N         140.9840  139.3934  164.3480 N.ar    1  UNL1       -0.2409
      8 H         137.5924  138.3560  167.5177 H       1  UNL1        0.1438
      9 H         138.8351  139.4038  168.0329 H       1  UNL1        0.1438
     10 C         142.2941  138.2429  159.2285 C.ar    1  UNL1        0.1219
     11 C         143.0681  137.8720  160.4586 C.ar    1  UNL1        0.0199
     12 C         142.4233  137.9727  161.8092 C.ar    1  UNL1        0.0029
     13 C         141.0045  138.4442  161.9297 C.ar    1  UNL1        0.0193
     14 C         140.2305  138.8151  160.6995 C.ar    1  UNL1        0.0029
     15 C         140.8753  138.7145  159.3489 C.ar    1  UNL1        0.0199
     16 S         142.9389  138.1423  157.8779 S.O2    1  UNL1        0.0603
     17 O         142.0947  136.9427  157.5643 O.2     1  UNL1       -0.1530
     18 O         143.7830  139.3419  158.1915 O.2     1  UNL1       -0.1530
     19 C         143.6475  136.7186  155.8234 C.3     1  UNL1        0.1102
     20 N         143.5837  138.0416  156.5273 N.3     1  UNL1       -0.1779
     21 H         143.0783  138.6787  155.9115 H       1  UNL1        0.1488
     22 C         140.9636  140.3427  166.7665 C.ar    1  UNL1        0.0395
     23 C         140.4524  141.7306  167.0158 C.ar    1  UNL1        0.0046
     24 C         141.0767  142.5792  168.0836 C.ar    1  UNL1        0.0232
     25 C         142.2123  142.0398  168.9020 C.ar    1  UNL1        0.1526
     26 N         142.7234  140.6518  168.6526 N.ar    1  UNL1       -0.2398
     27 C         142.0990  139.8032  167.5848 C.ar    1  UNL1        0.1003
     28 C         142.8366  142.8884  169.9697 C.3     1  UNL1        0.4348
     29 F         143.4609  143.7370  171.0375 F       1  UNL1       -0.1644
     30 F         144.0617  142.0234  169.9408 F       1  UNL1       -0.1644
     31 F         141.6115  143.7534  169.9986 F       1  UNL1       -0.1644
@<TRIPOS>BOND
     1    19    20    1
     2    20    16    1
     3    16    17    2
     4    16    18    2
     5    16    10    1
     6    10    11   ar
     7    11    12   ar
     8    12    13   ar
     9    13     1    1
    10     1     2   ar
    11     2     3   ar
    12     3     4   ar
    13     4     5    1
    14     4     6   ar
    15     6    22    1
    16    22    23   ar
    17    23    24   ar
    18    24    25   ar
    19    25    28    1
    20    28    29    1
    21    28    30    1
    22    28    31    1
    23    25    26   ar
    24    26    27   ar
    25     6     7   ar
    26    13    14   ar
    27    14    15   ar
    28    15    10   ar
    29     7     1   ar
    30    27    22   ar
    31    20    21    1
    32     5     8    1
    33     5     9    1
@<TRIPOS>MOLECULE
*****
 31 33 0 0 0
SMALL
GASTEIGER

@<TRIPOS>ATOM
      1 C         141.1313  143.0834  162.0513 C.ar    1  UNL1        0.1005
      2 C         140.3320  144.3286  161.8056 C.ar    1  UNL1        0.1193
      3 N         139.4551  144.8830  162.8889 N.ar    1  UNL1       -0.2265
      4 C         139.3775  144.1921  164.2181 C.ar    1  UNL1        0.1433
      5 N         138.5007  144.7465  165.3015 N.pl3   1  UNL1       -0.3414
      6 C         140.1769  142.9469  164.4638 C.ar    1  UNL1        0.1138
      7 N         141.0538  142.3925  163.3804 N.ar    1  UNL1       -0.2409
      8 H         137.9760  145.5638  165.1402 H       1  UNL1        0.1438
      9 H         138.4497  144.2930  166.1738 H       1  UNL1        0.1438
     10 C         143.7620  141.4203  158.8011 C.ar    1  UNL1        0.1219
     11 C         143.4937  142.8945  158.8680 C.ar    1  UNL1        0.0199
     12 C         142.6168  143.4489  159.9514 C.ar    1  UNL1        0.0029
     13 C         142.0082  142.5290  160.9679 C.ar    1  UNL1        0.0193
     14 C         142.2766  141.0547  160.9010 C.ar    1  UNL1        0.0029
     15 C         143.1535  140.5004  159.8177 C.ar    1  UNL1        0.0199
     16 S         144.6389  140.8659  157.7177 S.O2    1  UNL1        0.0603
     17 O         145.3135  142.1987  157.5818 O.2     1  UNL1       -0.1530
     18 O         143.9643  139.5331  157.8537 O.2     1  UNL1       -0.1530
     19 C         146.1560  141.2356  155.6412 C.3     1  UNL1        0.1102
     20 N         145.5158  140.3115  156.6343 N.3     1  UNL1       -0.1779
     21 H         146.2720  139.8069  157.0969 H       1  UNL1        0.1488
     22 C         140.0993  142.2559  165.7930 C.ar    1  UNL1        0.0395
     23 C         140.7868  142.8482  166.9874 C.ar    1  UNL1        0.0046
     24 C         140.7092  142.1573  168.3165 C.ar    1  UNL1        0.0232
     25 C         139.9442  140.8741  168.4513 C.ar    1  UNL1        0.1526
     26 N         139.2567  140.2818  167.2569 N.ar    1  UNL1       -0.2398
     27 C         139.3343  140.9727  165.9277 C.ar    1  UNL1        0.1003
     28 C         139.8667  140.1832  169.7804 C.3     1  UNL1        0.4348
     29 F         139.7891  139.4923  171.1096 F       1  UNL1       -0.1644
     30 F         141.1650  139.4884  169.4950 F       1  UNL1       -0.1644
     31 F         138.5683  140.8780  170.0659 F       1  UNL1       -0.1644
@<TRIPOS>BOND
     1    19    20    1
     2    20    16    1
     3    16    17    2
     4    16    18    2
     5    16    10    1
     6    10    11   ar
     7    11    12   ar
     8    12    13   ar
     9    13     1    1
    10     1     2   ar
    11     2     3   ar
    12     3     4   ar
    13     4     5    1
    14     4     6   ar
    15     6    22    1
    16    22    23   ar
    17    23    24   ar
    18    24    25   ar
    19    25    28    1
    20    28    29    1
    21    28    30    1
    22    28    31    1
    23    25    26   ar
    24    26    27   ar
    25     6     7   ar
    26    13    14   ar
    27    14    15   ar
    28    15    10   ar
    29     7     1   ar
    30    27    22   ar
    31    20    21    1
    32     5     8    1
    33     5     9    1
@<TRIPOS>MOLECULE
*****
 31 33 0 0 0
SMALL
GASTEIGER

@<TRIPOS>ATOM
      1 C         139.7158  139.1497  163.3835 C.ar    1  UNL1        0.1005
      2 C         138.6266  138.3065  162.7897 C.ar    1  UNL1        0.1193
      3 N         138.6150  138.0249  161.3164 N.ar    1  UNL1       -0.2265
      4 C         139.6925  138.5865  160.4369 C.ar    1  UNL1        0.1433
      5 N         139.6809  138.3049  158.9637 N.pl3   1  UNL1       -0.3414
      6 C         140.7817  139.4296  161.0308 C.ar    1  UNL1        0.1138
      7 N         140.7934  139.7112  162.5041 N.ar    1  UNL1       -0.2409
      8 H         138.9660  137.7515  158.5739 H       1  UNL1        0.1438
      9 H         140.3882  138.6734  158.3865 H       1  UNL1        0.1438
     10 C         139.7506  139.9945  167.8034 C.ar    1  UNL1        0.1219
     11 C         138.5614  139.3293  167.1763 C.ar    1  UNL1        0.0199
     12 C         138.5498  139.0477  165.7030 C.ar    1  UNL1        0.0029
     13 C         139.7274  139.4313  164.8568 C.ar    1  UNL1        0.0193
     14 C         140.9166  140.0964  165.4839 C.ar    1  UNL1        0.0029
     15 C         140.9282  140.3781  166.9572 C.ar    1  UNL1        0.0199
     16 S         139.7623  140.2761  169.2766 S.O2    1  UNL1        0.0603
     17 O         141.0857  140.9677  169.1340 O.2     1  UNL1       -0.1530
     18 O         138.4389  139.5845  169.4193 O.2     1  UNL1       -0.1530
     19 C         140.9309  141.2878  171.3648 C.3     1  UNL1        0.1102
     20 N         139.7739  140.5577  170.7499 N.3     1  UNL1       -0.1779
     21 H         138.9384  141.1072  170.9513 H       1  UNL1        0.1488
     22 C         141.8594  139.9912  160.1514 C.ar    1  UNL1        0.0395
     23 C         141.7791  141.4137  159.6821 C.ar    1  UNL1        0.0046
     24 C         142.8567  141.9753  158.8027 C.ar    1  UNL1        0.0232
     25 C         144.0146  141.1144  158.3925 C.ar    1  UNL1        0.1526
     26 N         144.0949  139.6920  158.8618 N.ar    1  UNL1       -0.2398
     27 C         143.0173  139.1304  159.7412 C.ar    1  UNL1        0.1003
     28 C         145.0922  141.6760  157.5131 C.3     1  UNL1        0.4348
     29 F         146.1698  142.2376  156.6337 F       1  UNL1       -0.1644
     30 F         144.9420  143.0105  158.1813 F       1  UNL1       -0.1644
     31 F         145.2424  140.3415  156.8449 F       1  UNL1       -0.1644
@<TRIPOS>BOND
     1    19    20    1
     2    20    16    1
     3    16    17    2
     4    16    18    2
     5    16    10    1
     6    10    11   ar
     7    11    12   ar
     8    12    13   ar
     9    13     1    1
    10     1     2   ar
    11     2     3   ar
    12     3     4   ar
    13     4     5    1
    14     4     6   ar
    15     6    22    1
    16    22    23   ar
    17    23    24   ar
    18    24    25   ar
    19    25    28    1
    20    28    29    1
    21    28    30    1
    22    28    31    1
    23    25    26   ar
    24    26    27   ar
    25     6     7   ar
    26    13    14   ar
    27    14    15   ar
    28    15    10   ar
    29     7     1   ar
    30    27    22   ar
    31    20    21    1
    32     5     8    1
    33     5     9    1
@<TRIPOS>MOLECULE
*****
 31 33 0 0 0
SMALL
GASTEIGER

@<TRIPOS>ATOM
      1 C         139.4138  139.4604  163.2200 C.ar    1  UNL1        0.1005
      2 C         138.1904  138.8497  162.6032 C.ar    1  UNL1        0.1193
      3 N         138.1205  138.6471  161.1186 N.ar    1  UNL1       -0.2265
      4 C         139.2739  139.0552  160.2507 C.ar    1  UNL1        0.1433
      5 N         139.2039  138.8525  158.7661 N.pl3   1  UNL1       -0.3414
      6 C         140.4972  139.6658  160.8675 C.ar    1  UNL1        0.1138
      7 N         140.5672  139.8684  162.3522 N.ar    1  UNL1       -0.2409
      8 H         138.4010  138.4518  158.3613 H       1  UNL1        0.1438
      9 H         139.9610  139.1203  158.1966 H       1  UNL1        0.1438
     10 C         139.6237  140.0682  167.6738 C.ar    1  UNL1        0.1219
     11 C         140.6531  140.6962  166.7818 C.ar    1  UNL1        0.0199
     12 C         140.5832  140.4936  165.2972 C.ar    1  UNL1        0.0029
     13 C         139.4837  139.6630  164.7046 C.ar    1  UNL1        0.0193
     14 C         138.4543  139.0350  165.5966 C.ar    1  UNL1        0.0029
     15 C         138.5242  139.2376  167.0812 C.ar    1  UNL1        0.0199
     16 S         139.6936  140.2708  169.1584 S.O2    1  UNL1        0.0603
     17 O         138.3701  139.5824  169.3147 O.2     1  UNL1       -0.1530
     18 O         141.0171  140.9592  169.0021 O.2     1  UNL1       -0.1530
     19 C         140.9211  141.2131  171.2453 C.3     1  UNL1        0.1102
     20 N         139.7636  140.4734  170.6430 N.3     1  UNL1       -0.1779
     21 H         138.9193  140.9791  170.9113 H       1  UNL1        0.1488
     22 C         141.6507  140.0738  159.9997 C.ar    1  UNL1        0.0395
     23 C         141.7059  141.4596  159.4283 C.ar    1  UNL1        0.0046
     24 C         142.8593  141.8677  158.5605 C.ar    1  UNL1        0.0232
     25 C         143.9576  140.8900  158.2641 C.ar    1  UNL1        0.1526
     26 N         143.9025  139.5042  158.8356 N.ar    1  UNL1       -0.2398
     27 C         142.7490  139.0961  159.7034 C.ar    1  UNL1        0.1003
     28 C         145.1110  141.2980  157.3964 C.3     1  UNL1        0.4348
     29 F         146.2644  141.7061  156.5286 F       1  UNL1       -0.1644
     30 F         145.2939  142.5369  158.2220 F       1  UNL1       -0.1644
     31 F         144.9281  140.0592  156.5707 F       1  UNL1       -0.1644
@<TRIPOS>BOND
     1    19    20    1
     2    20    16    1
     3    16    17    2
     4    16    18    2
     5    16    10    1
     6    10    11   ar
     7    11    12   ar
     8    12    13   ar
     9    13     1    1
    10     1     2   ar
    11     2     3   ar
    12     3     4   ar
    13     4     5    1
    14     4     6   ar
    15     6    22    1
    16    22    23   ar
    17    23    24   ar
    18    24    25   ar
    19    25    28    1
    20    28    29    1
    21    28    30    1
    22    28    31    1
    23    25    26   ar
    24    26    27   ar
    25     6     7   ar
    26    13    14   ar
    27    14    15   ar
    28    15    10   ar
    29     7     1   ar
    30    27    22   ar
    31    20    21    1
    32     5     8    1
    33     5     9    1
@<TRIPOS>MOLECULE
*****
 31 33 0 0 0
SMALL
GASTEIGER

@<TRIPOS>ATOM
      1 C         143.2913  139.8334  163.2198 C.ar    1  UNL1        0.1005
      2 C         143.9927  138.6663  162.5908 C.ar    1  UNL1        0.1193
      3 N         144.1947  138.6244  161.1051 N.ar    1  UNL1       -0.2265
      4 C         143.6952  139.7497  160.2483 C.ar    1  UNL1        0.1433
      5 N         143.8972  139.7078  158.7625 N.pl3   1  UNL1       -0.3414
      6 C         142.9937  140.9169  160.8772 C.ar    1  UNL1        0.1138
      7 N         142.7918  140.9587  162.3630 N.ar    1  UNL1       -0.2409
      8 H         144.3576  138.9418  158.3497 H       1  UNL1        0.1438
      9 H         143.5693  140.4464  158.2002 H       1  UNL1        0.1438
     10 C         142.6854  139.9590  167.6770 C.ar    1  UNL1        0.1219
     11 C         143.1155  138.6841  167.0143 C.ar    1  UNL1        0.0199
     12 C         143.3175  138.6422  165.5285 C.ar    1  UNL1        0.0029
     13 C         143.0893  139.8753  164.7055 C.ar    1  UNL1        0.0193
     14 C         142.6591  141.1503  165.3683 C.ar    1  UNL1        0.0029
     15 C         142.4571  141.1921  166.8541 C.ar    1  UNL1        0.0199
     16 S         142.4834  140.0009  169.1628 S.O2    1  UNL1        0.0603
     17 O         143.0154  138.6029  169.2745 O.2     1  UNL1       -0.1530
     18 O         141.9513  141.3989  169.0511 O.2     1  UNL1       -0.1530
     19 C         141.1563  140.8464  171.2302 C.3     1  UNL1        0.1102
     20 N         142.2814  140.0427  170.6486 N.3     1  UNL1       -0.1779
     21 H         142.1439  139.0794  170.9543 H       1  UNL1        0.1488
     22 C         142.4942  142.0422  160.0204 C.ar    1  UNL1        0.0395
     23 C         141.0336  142.1455  159.6946 C.ar    1  UNL1        0.0046
     24 C         140.5341  143.2708  158.8379 C.ar    1  UNL1        0.0232
     25 C         141.4950  144.2929  158.3069 C.ar    1  UNL1        0.1526
     26 N         142.9556  144.1896  158.6327 N.ar    1  UNL1       -0.2398
     27 C         143.4551  143.0643  159.4895 C.ar    1  UNL1        0.1003
     28 C         140.9955  145.4182  157.4501 C.3     1  UNL1        0.4348
     29 F         140.4959  146.5435  156.5934 F       1  UNL1       -0.1644
     30 F         142.2963  146.1405  157.6403 F       1  UNL1       -0.1644
     31 F         139.6947  144.6960  157.2599 F       1  UNL1       -0.1644
@<TRIPOS>BOND
     1    19    20    1
     2    20    16    1
     3    16    17    2
     4    16    18    2
     5    16    10    1
     6    10    11   ar
     7    11    12   ar
     8    12    13   ar
     9    13     1    1
    10     1     2   ar
    11     2     3   ar
    12     3     4   ar
    13     4     5    1
    14     4     6   ar
    15     6    22    1
    16    22    23   ar
    17    23    24   ar
    18    24    25   ar
    19    25    28    1
    20    28    29    1
    21    28    30    1
    22    28    31    1
    23    25    26   ar
    24    26    27   ar
    25     6     7   ar
    26    13    14   ar
    27    14    15   ar
    28    15    10   ar
    29     7     1   ar
    30    27    22   ar
    31    20    21    1
    32     5     8    1
    33     5     9    1
@<TRIPOS>MOLECULE
*****
 31 33 0 0 0
SMALL
GASTEIGER

@<TRIPOS>ATOM
      1 C         139.2851  141.9625  163.2600 C.ar    1  UNL1        0.1005
      2 C         137.9409  142.4007  162.7589 C.ar    1  UNL1        0.1193
      3 N         137.7758  142.8284  161.3307 N.ar    1  UNL1       -0.2265
      4 C         138.9549  142.8179  160.4035 C.ar    1  UNL1        0.1433
      5 N         138.7898  143.2457  158.9753 N.pl3   1  UNL1       -0.3414
      6 C         140.2990  142.3797  160.9046 C.ar    1  UNL1        0.1138
      7 N         140.4641  141.9520  162.3328 N.ar    1  UNL1       -0.2409
      8 H         137.9075  143.5333  158.6465 H       1  UNL1        0.1438
      9 H         139.5636  143.2388  158.3668 H       1  UNL1        0.1438
     10 C         139.7804  140.6793  167.5446 C.ar    1  UNL1        0.1219
     11 C         140.3364  141.9949  167.0866 C.ar    1  UNL1        0.0199
     12 C         140.1713  142.4227  165.6584 C.ar    1  UNL1        0.0029
     13 C         139.4502  141.5347  164.6882 C.ar    1  UNL1        0.0193
     14 C         138.8941  140.2191  165.1461 C.ar    1  UNL1        0.0029
     15 C         139.0592  139.7914  166.5744 C.ar    1  UNL1        0.0199
     16 S         139.9455  140.2516  168.9728 S.O2    1  UNL1        0.0603
     17 O         141.2909  140.9134  169.0155 O.2     1  UNL1       -0.1530
     18 O         138.6000  139.5898  168.9301 O.2     1  UNL1       -0.1530
     19 C         140.8861  140.6819  171.3561 C.3     1  UNL1        0.1102
     20 N         140.1106  139.8238  170.4010 N.3     1  UNL1       -0.1779
     21 H         139.1725  139.7250  170.7891 H       1  UNL1        0.1488
     22 C         141.4782  142.3692  159.9774 C.ar    1  UNL1        0.0395
     23 C         141.8728  141.1010  159.2803 C.ar    1  UNL1        0.0046
     24 C         143.0519  141.0904  158.3532 C.ar    1  UNL1        0.0232
     25 C         143.8364  142.3481  158.1232 C.ar    1  UNL1        0.1526
     26 N         143.4418  143.6163  158.8203 N.ar    1  UNL1       -0.2398
     27 C         142.2627  143.6268  159.7475 C.ar    1  UNL1        0.1003
     28 C         145.0155  142.3375  157.1961 C.3     1  UNL1        0.4348
     29 F         146.1946  142.3269  156.2689 F       1  UNL1       -0.1644
     30 F         144.1404  141.8293  156.0889 F       1  UNL1       -0.1644
     31 F         145.8906  142.8457  158.3032 F       1  UNL1       -0.1644
@<TRIPOS>BOND
     1    19    20    1
     2    20    16    1
     3    16    17    2
     4    16    18    2
     5    16    10    1
     6    10    11   ar
     7    11    12   ar
     8    12    13   ar
     9    13     1    1
    10     1     2   ar
    11     2     3   ar
    12     3     4   ar
    13     4     5    1
    14     4     6   ar
    15     6    22    1
    16    22    23   ar
    17    23    24   ar
    18    24    25   ar
    19    25    28    1
    20    28    29    1
    21    28    30    1
    22    28    31    1
    23    25    26   ar
    24    26    27   ar
    25     6     7   ar
    26    13    14   ar
    27    14    15   ar
    28    15    10   ar
    29     7     1   ar
    30    27    22   ar
    31    20    21    1
    32     5     8    1
    33     5     9    1
@<TRIPOS>MOLECULE
*****
 31 33 0 0 0
SMALL
GASTEIGER

@<TRIPOS>ATOM
      1 C         141.6830  138.5640  158.1274 C.ar    1  UNL1        0.1005
      2 C         142.7075  139.4266  157.4519 C.ar    1  UNL1        0.1193
      3 N         143.6602  138.8242  156.4621 N.ar    1  UNL1       -0.2265
      4 C         143.5884  137.3593  156.1480 C.ar    1  UNL1        0.1433
      5 N         144.5410  136.7569  155.1582 N.pl3   1  UNL1       -0.3414
      6 C         142.5639  136.4967  156.8235 C.ar    1  UNL1        0.1138
      7 N         141.6112  137.0991  157.8132 N.ar    1  UNL1       -0.2409
      8 H         145.2134  137.3230  154.7148 H       1  UNL1        0.1438
      9 H         144.4939  135.7954  154.9520 H       1  UNL1        0.1438
     10 C         138.8250  140.3712  161.0966 C.ar    1  UNL1        0.1219
     11 C         140.2482  140.1074  161.4903 C.ar    1  UNL1        0.0199
     12 C         141.2008  139.5050  160.5006 C.ar    1  UNL1        0.0029
     13 C         140.7304  139.1664  159.1172 C.ar    1  UNL1        0.0193
     14 C         139.3072  139.4302  158.7234 C.ar    1  UNL1        0.0029
     15 C         138.3546  140.0326  159.7132 C.ar    1  UNL1        0.0199
     16 S         137.8724  140.9735  162.0864 S.O2    1  UNL1        0.0603
     17 O         137.9567  139.7316  162.9234 O.2     1  UNL1       -0.1530
     18 O         137.7880  142.2154  161.2493 O.2     1  UNL1       -0.1530
     19 C         137.4215  142.5427  164.1073 C.3     1  UNL1        0.1102
     20 N         136.9197  141.5759  163.0761 N.3     1  UNL1       -0.1779
     21 H         136.2052  142.0650  162.5369 H       1  UNL1        0.1488
     22 C         142.4921  135.0317  156.5093 C.ar    1  UNL1        0.0395
     23 C         141.6001  134.5441  155.4063 C.ar    1  UNL1        0.0046
     24 C         141.5282  133.0791  155.0921 C.ar    1  UNL1        0.0232
     25 C         142.3483  132.1017  155.8810 C.ar    1  UNL1        0.1526
     26 N         143.2403  132.5894  156.9840 N.ar    1  UNL1       -0.2398
     27 C         143.3121  134.0544  157.2982 C.ar    1  UNL1        0.1003
     28 C         142.2765  130.6368  155.5668 C.3     1  UNL1        0.4348
     29 F         142.2046  129.1719  155.2526 F       1  UNL1       -0.1644
     30 F         140.8666  130.8093  155.0848 F       1  UNL1       -0.1644
     31 F         143.6864  130.4643  156.0488 F       1  UNL1       -0.1644
@<TRIPOS>BOND
     1    19    20    1
     2    20    16    1
     3    16    17    2
     4    16    18    2
     5    16    10    1
     6    10    11   ar
     7    11    12   ar
     8    12    13   ar
     9    13     1    1
    10     1     2   ar
    11     2     3   ar
    12     3     4   ar
    13     4     5    1
    14     4     6   ar
    15     6    22    1
    16    22    23   ar
    17    23    24   ar
    18    24    25   ar
    19    25    28    1
    20    28    29    1
    21    28    30    1
    22    28    31    1
    23    25    26   ar
    24    26    27   ar
    25     6     7   ar
    26    13    14   ar
    27    14    15   ar
    28    15    10   ar
    29     7     1   ar
    30    27    22   ar
    31    20    21    1
    32     5     8    1
    33     5     9    1
@<TRIPOS>MOLECULE
*****
 31 33 0 0 0
SMALL
GASTEIGER

@<TRIPOS>ATOM
      1 C         140.9813  140.2870  161.6902 C.ar    1  UNL1        0.1005
      2 C         141.1043  138.9045  161.1216 C.ar    1  UNL1        0.1193
      3 N         141.1210  137.7160  162.0365 N.ar    1  UNL1       -0.2265
      4 C         141.0147  137.9100  163.5201 C.ar    1  UNL1        0.1433
      5 N         141.0314  136.7214  164.4350 N.pl3   1  UNL1       -0.3414
      6 C         140.8916  139.2925  164.0887 C.ar    1  UNL1        0.1138
      7 N         140.8749  140.4810  163.1738 N.ar    1  UNL1       -0.2409
      8 H         141.1121  135.8140  164.0618 H       1  UNL1        0.1438
      9 H         140.9616  136.8488  165.4087 H       1  UNL1        0.1438
     10 C         140.9312  143.8526  158.9454 C.ar    1  UNL1        0.1219
     11 C         140.2748  143.9333  160.2917 C.ar    1  UNL1        0.0199
     12 C         140.2915  142.7447  161.2067 C.ar    1  UNL1        0.0029
     13 C         140.9646  141.4756  160.7753 C.ar    1  UNL1        0.0193
     14 C         141.6209  141.3949  159.4289 C.ar    1  UNL1        0.0029
     15 C         141.6042  142.5835  158.5140 C.ar    1  UNL1        0.0199
     16 S         140.9145  145.0412  158.0304 S.O2    1  UNL1        0.0603
     17 O         139.8130  144.4104  157.2311 O.2     1  UNL1       -0.1530
     18 O         142.0159  145.6720  158.8298 O.2     1  UNL1       -0.1530
     19 C         139.6119  146.6694  156.4806 C.3     1  UNL1        0.1102
     20 N         140.8978  146.2297  157.1155 N.3     1  UNL1       -0.1779
     21 H         141.2455  147.0220  157.6557 H       1  UNL1        0.1488
     22 C         140.7853  139.4866  165.5723 C.ar    1  UNL1        0.0395
     23 C         142.0278  139.5773  166.4078 C.ar    1  UNL1        0.0046
     24 C         141.9215  139.7713  167.8914 C.ar    1  UNL1        0.0232
     25 C         140.5727  139.8747  168.5395 C.ar    1  UNL1        0.1526
     26 N         139.3302  139.7840  167.7041 N.ar    1  UNL1       -0.2398
     27 C         139.4365  139.5900  166.2204 C.ar    1  UNL1        0.1003
     28 C         140.4664  140.0688  170.0231 C.3     1  UNL1        0.4348
     29 F         140.3601  140.2628  171.5066 F       1  UNL1       -0.1644
     30 F         141.5203  139.0228  170.2354 F       1  UNL1       -0.1644
     31 F         139.4125  141.1148  169.8108 F       1  UNL1       -0.1644
@<TRIPOS>BOND
     1    19    20    1
     2    20    16    1
     3    16    17    2
     4    16    18    2
     5    16    10    1
     6    10    11   ar
     7    11    12   ar
     8    12    13   ar
     9    13     1    1
    10     1     2   ar
    11     2     3   ar
    12     3     4   ar
    13     4     5    1
    14     4     6   ar
    15     6    22    1
    16    22    23   ar
    17    23    24   ar
    18    24    25   ar
    19    25    28    1
    20    28    29    1
    21    28    30    1
    22    28    31    1
    23    25    26   ar
    24    26    27   ar
    25     6     7   ar
    26    13    14   ar
    27    14    15   ar
    28    15    10   ar
    29     7     1   ar
    30    27    22   ar
    31    20    21    1
    32     5     8    1
    33     5     9    1
@<TRIPOS>MOLECULE
*****
 31 33 0 0 0
SMALL
GASTEIGER

@<TRIPOS>ATOM
      1 C         139.4619  141.0831  161.3641 C.ar    1  UNL1        0.1005
      2 C         138.6093  142.2533  160.9722 C.ar    1  UNL1        0.1193
      3 N         138.0114  143.1332  162.0296 N.ar    1  UNL1       -0.2265
      4 C         138.2661  142.8430  163.4790 C.ar    1  UNL1        0.1433
      5 N         137.6682  143.7229  164.5365 N.pl3   1  UNL1       -0.3414
      6 C         139.1188  141.6728  163.8710 C.ar    1  UNL1        0.1138
      7 N         139.7167  140.7929  162.8135 N.ar    1  UNL1       -0.2409
      8 H         137.1086  144.4909  164.2792 H       1  UNL1        0.1438
      9 H         137.8354  143.5324  165.4878 H       1  UNL1        0.1438
     10 C         141.2556  138.4433  158.1917 C.ar    1  UNL1        0.1219
     11 C         142.1457  139.2759  159.0661 C.ar    1  UNL1        0.0199
     12 C         141.5478  140.1558  160.1235 C.ar    1  UNL1        0.0029
     13 C         140.0598  140.2032  160.3067 C.ar    1  UNL1        0.0193
     14 C         139.1697  139.3706  159.4323 C.ar    1  UNL1        0.0029
     15 C         139.7676  138.4906  158.3749 C.ar    1  UNL1        0.0199
     16 S         141.8535  137.5633  157.1343 S.O2    1  UNL1        0.0603
     17 O         140.4782  137.1550  156.6965 O.2     1  UNL1       -0.1530
     18 O         143.2289  137.9717  157.5721 O.2     1  UNL1       -0.1530
     19 C         142.4527  135.1938  156.2532 C.3     1  UNL1        0.1102
     20 N         142.4514  136.6834  156.0768 N.3     1  UNL1       -0.1779
     21 H         141.9461  136.8771  155.2122 H       1  UNL1        0.1488
     22 C         139.3736  141.3826  165.3205 C.ar    1  UNL1        0.0395
     23 C         140.1719  142.3450  166.1490 C.ar    1  UNL1        0.0046
     24 C         140.4267  142.0548  167.5984 C.ar    1  UNL1        0.0232
     25 C         139.8832  140.8021  168.2193 C.ar    1  UNL1        0.1526
     26 N         139.0849  139.8397  167.3908 N.ar    1  UNL1       -0.2398
     27 C         138.8301  140.1299  165.9413 C.ar    1  UNL1        0.1003
     28 C         140.1380  140.5119  169.6687 C.3     1  UNL1        0.4348
     29 F         140.3928  140.2217  171.1181 F       1  UNL1       -0.1644
     30 F         141.1396  139.4642  169.2829 F       1  UNL1       -0.1644
     31 F         139.1363  141.5596  170.0546 F       1  UNL1       -0.1644
@<TRIPOS>BOND
     1    19    20    1
     2    20    16    1
     3    16    17    2
     4    16    18    2
     5    16    10    1
     6    10    11   ar
     7    11    12   ar
     8    12    13   ar
     9    13     1    1
    10     1     2   ar
    11     2     3   ar
    12     3     4   ar
    13     4     5    1
    14     4     6   ar
    15     6    22    1
    16    22    23   ar
    17    23    24   ar
    18    24    25   ar
    19    25    28    1
    20    28    29    1
    21    28    30    1
    22    28    31    1
    23    25    26   ar
    24    26    27   ar
    25     6     7   ar
    26    13    14   ar
    27    14    15   ar
    28    15    10   ar
    29     7     1   ar
    30    27    22   ar
    31    20    21    1
    32     5     8    1
    33     5     9    1
