@<TRIPOS>MOLECULE
*****
 25 27 0 0 0
SMALL
GASTEIGER

@<TRIPOS>ATOM
      1 N         138.5640  139.9763  170.0619 N.pl3   1  UNL1       -0.3414
      2 C         138.7635  139.6106  168.6209 C.ar    1  UNL1        0.1433
      3 N         137.7533  138.7533  167.9178 N.ar    1  UNL1       -0.2265
      4 C         137.9528  138.3877  166.4768 C.ar    1  UNL1        0.1193
      5 C         139.1626  138.8794  165.7389 C.ar    1  UNL1        0.1006
      6 N         140.1728  139.7367  166.4419 N.ar    1  UNL1       -0.2409
      7 C         139.9733  140.1023  167.8829 C.ar    1  UNL1        0.1138
      8 H         137.7700  139.6535  170.5462 H       1  UNL1        0.1438
      9 H         139.2271  140.5390  170.5233 H       1  UNL1        0.1438
     10 C         139.3621  138.5137  164.2979 C.ar    1  UNL1        0.0223
     11 C         138.2876  138.8083  163.2936 C.ar    1  UNL1        0.0222
     12 C         138.4871  138.4427  161.8526 C.ar    1  UNL1        0.0989
     13 N         139.7612  137.7825  161.4158 N.ar    1  UNL1       -0.2423
     14 C         140.8357  137.4879  162.4201 C.ar    1  UNL1        0.0989
     15 C         140.6362  137.8535  163.8611 C.ar    1  UNL1        0.0222
     16 C         140.9836  140.9597  168.5860 C.ar    1  UNL1        0.0395
     17 C         140.6593  142.3878  168.9106 C.ar    1  UNL1        0.0046
     18 C         141.6696  143.2452  169.6136 C.ar    1  UNL1        0.0232
     19 C         143.0042  142.6745  169.9921 C.ar    1  UNL1        0.1526
     20 N         143.3285  141.2464  169.6675 N.ar    1  UNL1       -0.2398
     21 C         142.3182  140.3890  168.9644 C.ar    1  UNL1        0.1003
     22 C         144.0144  143.5319  170.6951 C.3     1  UNL1        0.4348
     23 F         145.0247  144.3893  171.3981 F       1  UNL1       -0.1644
     24 F         142.9146  144.4271  171.1838 F       1  UNL1       -0.1644
     25 F         145.1143  142.6367  170.2063 F       1  UNL1       -0.1644
@<TRIPOS>BOND
     1     1     2    1
     2     2     3   ar
     3     3     4   ar
     4     4     5   ar
     5     5    10    1
     6    10    11   ar
     7    11    12   ar
     8    12    13   ar
     9    13    14   ar
    10    14    15   ar
    11     5     6   ar
    12     6     7   ar
    13     7    16    1
    14    16    17   ar
    15    17    18   ar
    16    18    19   ar
    17    19    22    1
    18    22    23    1
    19    22    24    1
    20    22    25    1
    21    19    20   ar
    22    20    21   ar
    23     7     2   ar
    24    21    16   ar
    25    15    10   ar
    26     1     8    1
    27     1     9    1
@<TRIPOS>MOLECULE
*****
 25 27 0 0 0
SMALL
GASTEIGER

@<TRIPOS>ATOM
      1 N         138.2317  138.6090  165.7549 N.pl3   1  UNL1       -0.3414
      2 C         138.5239  139.8010  164.8925 C.ar    1  UNL1        0.1433
      3 N         137.6946  140.0642  163.6707 N.ar    1  UNL1       -0.2265
      4 C         137.9868  141.2562  162.8083 C.ar    1  UNL1        0.1193
      5 C         139.1085  142.1849  163.1677 C.ar    1  UNL1        0.1006
      6 N         139.9379  141.9217  164.3894 N.ar    1  UNL1       -0.2409
      7 C         139.6456  140.7298  165.2519 C.ar    1  UNL1        0.1138
      8 H         137.4955  137.9994  165.5190 H       1  UNL1        0.1438
      9 H         138.7761  138.4362  166.5568 H       1  UNL1        0.1438
     10 C         139.4007  143.3769  162.3053 C.ar    1  UNL1        0.0223
     11 C         139.3445  144.7573  162.8896 C.ar    1  UNL1        0.0222
     12 C         139.6368  145.9493  162.0272 C.ar    1  UNL1        0.0989
     13 N         139.9852  145.7609  160.5804 N.ar    1  UNL1       -0.2423
     14 C         140.0415  144.3806  159.9961 C.ar    1  UNL1        0.0989
     15 C         139.7492  143.1886  160.8585 C.ar    1  UNL1        0.0222
     16 C         140.4751  140.4666  166.4737 C.ar    1  UNL1        0.0395
     17 C         141.7668  139.7133  166.3553 C.ar    1  UNL1        0.0046
     18 C         142.5962  139.4501  167.5770 C.ar    1  UNL1        0.0232
     19 C         142.1340  139.9402  168.9173 C.ar    1  UNL1        0.1526
     20 N         140.8423  140.6936  169.0357 N.ar    1  UNL1       -0.2398
     21 C         140.0128  140.9567  167.8138 C.ar    1  UNL1        0.1003
     22 C         142.9634  139.6771  170.1390 C.3     1  UNL1        0.4348
     23 F         143.7929  139.4139  171.3608 F       1  UNL1       -0.1644
     24 F         143.5679  141.0449  170.0233 F       1  UNL1       -0.1644
     25 F         142.3589  138.3092  170.2548 F       1  UNL1       -0.1644
@<TRIPOS>BOND
     1     1     2    1
     2     2     3   ar
     3     3     4   ar
     4     4     5   ar
     5     5    10    1
     6    10    11   ar
     7    11    12   ar
     8    12    13   ar
     9    13    14   ar
    10    14    15   ar
    11     5     6   ar
    12     6     7   ar
    13     7    16    1
    14    16    17   ar
    15    17    18   ar
    16    18    19   ar
    17    19    22    1
    18    22    23    1
    19    22    24    1
    20    22    25    1
    21    19    20   ar
    22    20    21   ar
    23     7     2   ar
    24    21    16   ar
    25    15    10   ar
    26     1     8    1
    27     1     9    1
@<TRIPOS>MOLECULE
*****
 25 27 0 0 0
SMALL
GASTEIGER

@<TRIPOS>ATOM
      1 N         138.4577  138.9776  167.3855 N.pl3   1  UNL1       -0.3414
      2 C         139.1432  138.8231  166.0603 C.ar    1  UNL1        0.1433
      3 N         138.5266  137.9696  164.9920 N.ar    1  UNL1       -0.2265
      4 C         139.2121  137.8150  163.6668 C.ar    1  UNL1        0.1193
      5 C         140.5142  138.5139  163.4099 C.ar    1  UNL1        0.1006
      6 N         141.1308  139.3673  164.4782 N.ar    1  UNL1       -0.2409
      7 C         140.4453  139.5219  165.8034 C.ar    1  UNL1        0.1138
      8 H         137.6031  138.5189  167.5541 H       1  UNL1        0.1438
      9 H         138.8624  139.5378  168.0867 H       1  UNL1        0.1438
     10 C         141.1997  138.3593  162.0847 C.ar    1  UNL1        0.0223
     11 C         140.4536  138.6487  160.8160 C.ar    1  UNL1        0.0222
     12 C         141.1391  138.4942  159.4908 C.ar    1  UNL1        0.0989
     13 N         142.5707  138.0501  159.4342 N.ar    1  UNL1       -0.2423
     14 C         143.3168  137.7607  160.7029 C.ar    1  UNL1        0.0989
     15 C         142.6313  137.9153  162.0281 C.ar    1  UNL1        0.0222
     16 C         141.0620  140.3754  166.8718 C.ar    1  UNL1        0.0395
     17 C         140.5560  141.7683  167.1041 C.ar    1  UNL1        0.0046
     18 C         141.1727  142.6218  168.1724 C.ar    1  UNL1        0.0232
     19 C         142.2953  142.0824  169.0084 C.ar    1  UNL1        0.1526
     20 N         142.8013  140.6896  168.7761 N.ar    1  UNL1       -0.2398
     21 C         142.1846  139.8361  167.7077 C.ar    1  UNL1        0.1003
     22 C         142.9119  142.9359  170.0767 C.3     1  UNL1        0.4348
     23 F         143.5286  143.7894  171.1450 F       1  UNL1       -0.1644
     24 F         141.6665  143.7701  170.1291 F       1  UNL1       -0.1644
     25 F         144.1574  142.1017  170.0243 F       1  UNL1       -0.1644
@<TRIPOS>BOND
     1     1     2    1
     2     2     3   ar
     3     3     4   ar
     4     4     5   ar
     5     5    10    1
     6    10    11   ar
     7    11    12   ar
     8    12    13   ar
     9    13    14   ar
    10    14    15   ar
    11     5     6   ar
    12     6     7   ar
    13     7    16    1
    14    16    17   ar
    15    17    18   ar
    16    18    19   ar
    17    19    22    1
    18    22    23    1
    19    22    24    1
    20    22    25    1
    21    19    20   ar
    22    20    21   ar
    23     7     2   ar
    24    21    16   ar
    25    15    10   ar
    26     1     8    1
    27     1     9    1
@<TRIPOS>MOLECULE
*****
 25 27 0 0 0
SMALL
GASTEIGER

@<TRIPOS>ATOM
      1 N         138.2110  138.6174  165.7226 N.pl3   1  UNL1       -0.3414
      2 C         138.5069  139.8117  164.8646 C.ar    1  UNL1        0.1433
      3 N         137.6824  140.0785  163.6403 N.ar    1  UNL1       -0.2265
      4 C         137.9783  141.2727  162.7824 C.ar    1  UNL1        0.1193
      5 C         139.0987  142.2003  163.1487 C.ar    1  UNL1        0.1006
      6 N         139.9232  141.9335  164.3730 N.ar    1  UNL1       -0.2409
      7 C         139.6273  140.7393  165.2310 C.ar    1  UNL1        0.1138
      8 H         137.4756  138.0087  165.4822 H       1  UNL1        0.1438
      9 H         138.7521  138.4424  166.5262 H       1  UNL1        0.1438
     10 C         139.3947  143.3946  162.2907 C.ar    1  UNL1        0.0223
     11 C         139.7626  143.2092  160.8484 C.ar    1  UNL1        0.0222
     12 C         140.0585  144.4035  159.9905 C.ar    1  UNL1        0.0989
     13 N         139.9865  145.7831  160.5748 N.ar    1  UNL1       -0.2423
     14 C         139.6186  145.9684  162.0170 C.ar    1  UNL1        0.0989
     15 C         139.3226  144.7742  162.8750 C.ar    1  UNL1        0.0222
     16 C         140.4519  140.4725  166.4553 C.ar    1  UNL1        0.0395
     17 C         139.9673  140.9281  167.7998 C.ar    1  UNL1        0.0046
     18 C         140.7918  140.6614  169.0241 C.ar    1  UNL1        0.0232
     19 C         142.1010  139.9391  168.9040 C.ar    1  UNL1        0.1526
     20 N         142.5856  139.4836  167.5596 N.ar    1  UNL1       -0.2398
     21 C         141.7610  139.7503  166.3352 C.ar    1  UNL1        0.1003
     22 C         142.9255  139.6725  170.1284 C.3     1  UNL1        0.4348
     23 F         143.7500  139.4058  171.3527 F       1  UNL1       -0.1644
     24 F         142.3278  138.3006  170.2320 F       1  UNL1       -0.1644
     25 F         143.5232  141.0443  170.0247 F       1  UNL1       -0.1644
@<TRIPOS>BOND
     1     1     2    1
     2     2     3   ar
     3     3     4   ar
     4     4     5   ar
     5     5    10    1
     6    10    11   ar
     7    11    12   ar
     8    12    13   ar
     9    13    14   ar
    10    14    15   ar
    11     5     6   ar
    12     6     7   ar
    13     7    16    1
    14    16    17   ar
    15    17    18   ar
    16    18    19   ar
    17    19    22    1
    18    22    23    1
    19    22    24    1
    20    22    25    1
    21    19    20   ar
    22    20    21   ar
    23     7     2   ar
    24    21    16   ar
    25    15    10   ar
    26     1     8    1
    27     1     9    1
@<TRIPOS>MOLECULE
*****
 25 27 0 0 0
SMALL
GASTEIGER

@<TRIPOS>ATOM
      1 N         144.9576  144.0319  165.9502 N.pl3   1  UNL1       -0.3414
      2 C         144.5542  142.9833  164.9564 C.ar    1  UNL1        0.1433
      3 N         145.3888  142.7496  163.7322 N.ar    1  UNL1       -0.2265
      4 C         144.9855  141.7010  162.7383 C.ar    1  UNL1        0.1193
      5 C         143.7475  140.8860  162.9687 C.ar    1  UNL1        0.1006
      6 N         142.9129  141.1196  164.1930 N.ar    1  UNL1       -0.2409
      7 C         143.3163  142.1682  165.1868 C.ar    1  UNL1        0.1138
      8 H         145.7701  144.5668  165.7990 H       1  UNL1        0.1438
      9 H         144.4098  144.1852  166.7538 H       1  UNL1        0.1438
     10 C         143.3441  139.8374  161.9749 C.ar    1  UNL1        0.0223
     11 C         142.5246  138.6613  162.4165 C.ar    1  UNL1        0.0222
     12 C         142.1213  137.6126  161.4227 C.ar    1  UNL1        0.0989
     13 N         142.5374  137.7402  159.9873 N.ar    1  UNL1       -0.2423
     14 C         143.3569  138.9163  159.5457 C.ar    1  UNL1        0.0989
     15 C         143.7603  139.9649  160.5395 C.ar    1  UNL1        0.0222
     16 C         142.4816  142.4018  166.4111 C.ar    1  UNL1        0.0395
     17 C         143.0837  142.2274  167.7738 C.ar    1  UNL1        0.0046
     18 C         142.2491  142.4610  168.9981 C.ar    1  UNL1        0.0232
     19 C         140.8123  142.8690  168.8597 C.ar    1  UNL1        0.1526
     20 N         140.2101  143.0434  167.4969 N.ar    1  UNL1       -0.2398
     21 C         141.0448  142.8098  166.2726 C.ar    1  UNL1        0.1003
     22 C         139.9777  143.1025  170.0839 C.3     1  UNL1        0.4348
     23 F         139.1431  143.3361  171.3082 F       1  UNL1       -0.1644
     24 F         139.5918  141.6531  170.0973 F       1  UNL1       -0.1644
     25 F         140.3636  144.5519  170.0705 F       1  UNL1       -0.1644
@<TRIPOS>BOND
     1     1     2    1
     2     2     3   ar
     3     3     4   ar
     4     4     5   ar
     5     5    10    1
     6    10    11   ar
     7    11    12   ar
     8    12    13   ar
     9    13    14   ar
    10    14    15   ar
    11     5     6   ar
    12     6     7   ar
    13     7    16    1
    14    16    17   ar
    15    17    18   ar
    16    18    19   ar
    17    19    22    1
    18    22    23    1
    19    22    24    1
    20    22    25    1
    21    19    20   ar
    22    20    21   ar
    23     7     2   ar
    24    21    16   ar
    25    15    10   ar
    26     1     8    1
    27     1     9    1
@<TRIPOS>MOLECULE
*****
 25 27 0 0 0
SMALL
GASTEIGER

@<TRIPOS>ATOM
      1 N         138.2062  139.5362  163.2171 N.pl3   1  UNL1       -0.3414
      2 C         138.6962  139.9649  164.5685 C.ar    1  UNL1        0.1433
      3 N         138.5161  139.0620  165.7526 N.ar    1  UNL1       -0.2265
      4 C         139.0061  139.4907  167.1040 C.ar    1  UNL1        0.1193
      5 C         139.6761  140.8222  167.2712 C.ar    1  UNL1        0.1006
      6 N         139.8562  141.7251  166.0870 N.ar    1  UNL1       -0.2409
      7 C         139.3662  141.2964  164.7356 C.ar    1  UNL1        0.1138
      8 H         137.7664  138.6622  163.1074 H       1  UNL1        0.1438
      9 H         138.3244  140.1288  162.4399 H       1  UNL1        0.1438
     10 C         140.1661  141.2509  168.6225 C.ar    1  UNL1        0.0223
     11 C         140.3173  140.2404  169.7207 C.ar    1  UNL1        0.0222
     12 C         140.8072  140.6691  171.0721 C.ar    1  UNL1        0.0989
     13 N         141.1460  142.1082  171.3253 N.ar    1  UNL1       -0.2423
     14 C         140.9948  143.1186  170.2271 C.ar    1  UNL1        0.0989
     15 C         140.5048  142.6900  168.8757 C.ar    1  UNL1        0.0222
     16 C         139.5463  142.1994  163.5514 C.ar    1  UNL1        0.0395
     17 C         140.8329  142.1777  162.7806 C.ar    1  UNL1        0.0046
     18 C         141.0130  143.0806  161.5964 C.ar    1  UNL1        0.0232
     19 C         139.9065  144.0052  161.1830 C.ar    1  UNL1        0.1526
     20 N         138.6199  144.0269  161.9539 N.ar    1  UNL1       -0.2398
     21 C         138.4398  143.1240  163.1381 C.ar    1  UNL1        0.1003
     22 C         140.0867  144.9081  159.9989 C.3     1  UNL1        0.4348
     23 F         140.2668  145.8110  158.8147 F       1  UNL1       -0.1644
     24 F         139.6747  143.7921  159.0853 F       1  UNL1       -0.1644
     25 F         140.4986  146.0242  160.9125 F       1  UNL1       -0.1644
@<TRIPOS>BOND
     1     1     2    1
     2     2     3   ar
     3     3     4   ar
     4     4     5   ar
     5     5    10    1
     6    10    11   ar
     7    11    12   ar
     8    12    13   ar
     9    13    14   ar
    10    14    15   ar
    11     5     6   ar
    12     6     7   ar
    13     7    16    1
    14    16    17   ar
    15    17    18   ar
    16    18    19   ar
    17    19    22    1
    18    22    23    1
    19    22    24    1
    20    22    25    1
    21    19    20   ar
    22    20    21   ar
    23     7     2   ar
    24    21    16   ar
    25    15    10   ar
    26     1     8    1
    27     1     9    1
@<TRIPOS>MOLECULE
*****
 25 27 0 0 0
SMALL
GASTEIGER

@<TRIPOS>ATOM
      1 N         137.0120  141.9945  164.1305 N.pl3   1  UNL1       -0.3414
      2 C         137.9447  141.2610  163.2128 C.ar    1  UNL1        0.1433
      3 N         137.7649  141.3579  161.7268 N.ar    1  UNL1       -0.2265
      4 C         138.6976  140.6244  160.8091 C.ar    1  UNL1        0.1193
      5 C         139.8099  139.7940  161.3774 C.ar    1  UNL1        0.1006
      6 N         139.9897  139.6971  162.8634 N.ar    1  UNL1       -0.2409
      7 C         139.0571  140.4306  163.7811 C.ar    1  UNL1        0.1138
      8 H         136.2819  142.5395  163.7574 H       1  UNL1        0.1438
      9 H         137.1300  141.9309  165.1058 H       1  UNL1        0.1438
     10 C         140.7426  139.0605  160.4597 C.ar    1  UNL1        0.0223
     11 C         140.4437  138.9832  158.9918 C.ar    1  UNL1        0.0222
     12 C         141.3764  138.2497  158.0741 C.ar    1  UNL1        0.0989
     13 N         142.6079  137.5934  158.6243 N.ar    1  UNL1       -0.2423
     14 C         142.9067  137.6707  160.0922 C.ar    1  UNL1        0.0989
     15 C         141.9741  138.4042  161.0099 C.ar    1  UNL1        0.0222
     16 C         139.2368  140.3337  165.2672 C.ar    1  UNL1        0.0395
     17 C         140.1705  141.2722  165.9724 C.ar    1  UNL1        0.0046
     18 C         140.3503  141.1754  167.4584 C.ar    1  UNL1        0.0232
     19 C         139.5965  140.1399  168.2392 C.ar    1  UNL1        0.1526
     20 N         138.6628  139.2014  167.5340 N.ar    1  UNL1       -0.2398
     21 C         138.4830  139.2983  166.0479 C.ar    1  UNL1        0.1003
     22 C         139.7763  140.0431  169.7252 C.3     1  UNL1        0.4348
     23 F         139.9561  139.9462  171.2112 F       1  UNL1       -0.1644
     24 F         138.4066  140.6199  169.9286 F       1  UNL1       -0.1644
     25 F         141.1459  139.4662  169.5219 F       1  UNL1       -0.1644
@<TRIPOS>BOND
     1     1     2    1
     2     2     3   ar
     3     3     4   ar
     4     4     5   ar
     5     5    10    1
     6    10    11   ar
     7    11    12   ar
     8    12    13   ar
     9    13    14   ar
    10    14    15   ar
    11     5     6   ar
    12     6     7   ar
    13     7    16    1
    14    16    17   ar
    15    17    18   ar
    16    18    19   ar
    17    19    22    1
    18    22    23    1
    19    22    24    1
    20    22    25    1
    21    19    20   ar
    22    20    21   ar
    23     7     2   ar
    24    21    16   ar
    25    15    10   ar
    26     1     8    1
    27     1     9    1
@<TRIPOS>MOLECULE
*****
 25 27 0 0 0
SMALL
GASTEIGER

@<TRIPOS>ATOM
      1 N         141.1020  136.6170  164.6938 N.pl3   1  UNL1       -0.3414
      2 C         140.7105  137.6985  163.7310 C.ar    1  UNL1        0.1433
      3 N         140.6886  137.4190  162.2575 N.ar    1  UNL1       -0.2265
      4 C         140.2970  138.5006  161.2947 C.ar    1  UNL1        0.1193
      5 C         139.9273  139.8616  161.8054 C.ar    1  UNL1        0.1006
      6 N         139.9492  140.1410  163.2790 N.ar    1  UNL1       -0.2409
      7 C         140.3408  139.0595  164.2418 C.ar    1  UNL1        0.1138
      8 H         141.3447  135.7237  164.3585 H       1  UNL1        0.1438
      9 H         141.1164  136.8004  165.6609 H       1  UNL1        0.1438
     10 C         139.5357  140.9431  160.8427 C.ar    1  UNL1        0.0223
     11 C         139.9452  142.3626  161.1022 C.ar    1  UNL1        0.0222
     12 C         139.5536  143.4441  160.1394 C.ar    1  UNL1        0.0989
     13 N         138.7525  143.1062  158.9171 N.ar    1  UNL1       -0.2423
     14 C         138.3430  141.6867  158.6576 C.ar    1  UNL1        0.0989
     15 C         138.7346  140.6052  159.6204 C.ar    1  UNL1        0.0222
     16 C         140.3627  139.3391  165.7154 C.ar    1  UNL1        0.0395
     17 C         141.6615  139.6410  166.4022 C.ar    1  UNL1        0.0046
     18 C         141.6835  139.9205  167.8758 C.ar    1  UNL1        0.0232
     19 C         140.4065  139.8981  168.6625 C.ar    1  UNL1        0.1526
     20 N         139.1076  139.5962  167.9757 N.ar    1  UNL1       -0.2398
     21 C         139.0857  139.3167  166.5020 C.ar    1  UNL1        0.1003
     22 C         140.4284  140.1777  170.1360 C.3     1  UNL1        0.4348
     23 F         140.4503  140.4572  171.6096 F       1  UNL1       -0.1644
     24 F         141.5673  139.2156  170.3016 F       1  UNL1       -0.1644
     25 F         139.2896  141.1397  169.9705 F       1  UNL1       -0.1644
@<TRIPOS>BOND
     1     1     2    1
     2     2     3   ar
     3     3     4   ar
     4     4     5   ar
     5     5    10    1
     6    10    11   ar
     7    11    12   ar
     8    12    13   ar
     9    13    14   ar
    10    14    15   ar
    11     5     6   ar
    12     6     7   ar
    13     7    16    1
    14    16    17   ar
    15    17    18   ar
    16    18    19   ar
    17    19    22    1
    18    22    23    1
    19    22    24    1
    20    22    25    1
    21    19    20   ar
    22    20    21   ar
    23     7     2   ar
    24    21    16   ar
    25    15    10   ar
    26     1     8    1
    27     1     9    1
@<TRIPOS>MOLECULE
*****
 25 27 0 0 0
SMALL
GASTEIGER

@<TRIPOS>ATOM
      1 N         137.6053  144.1328  164.7552 N.pl3   1  UNL1       -0.3414
      2 C         138.7062  143.9211  163.7587 C.ar    1  UNL1        0.1433
      3 N         138.6574  144.6132  162.4288 N.ar    1  UNL1       -0.2265
      4 C         139.7583  144.4015  161.4323 C.ar    1  UNL1        0.1193
      5 C         140.9080  143.4976  161.7655 C.ar    1  UNL1        0.1006
      6 N         140.9568  142.8054  163.0954 N.ar    1  UNL1       -0.2409
      7 C         139.8559  143.0172  164.0919 C.ar    1  UNL1        0.1138
      8 H         136.8507  144.7261  164.5365 H       1  UNL1        0.1438
      9 H         137.6373  143.6785  165.6281 H       1  UNL1        0.1438
     10 C         142.0090  143.2859  160.7690 C.ar    1  UNL1        0.0223
     11 C         143.2689  142.5841  161.1811 C.ar    1  UNL1        0.0222
     12 C         144.3699  142.3723  160.1846 C.ar    1  UNL1        0.0989
     13 N         144.2108  142.8624  158.7759 N.ar    1  UNL1       -0.2423
     14 C         142.9508  143.5642  158.3637 C.ar    1  UNL1        0.0989
     15 C         141.8499  143.7759  159.3603 C.ar    1  UNL1        0.0222
     16 C         139.9047  142.3250  165.4218 C.ar    1  UNL1        0.0395
     17 C         140.5321  143.0085  166.6005 C.ar    1  UNL1        0.0046
     18 C         140.5809  142.3164  167.9303 C.ar    1  UNL1        0.0232
     19 C         140.0024  140.9407  168.0816 C.ar    1  UNL1        0.1526
     20 N         139.3751  140.2571  166.9029 N.ar    1  UNL1       -0.2398
     21 C         139.3263  140.9493  165.5730 C.ar    1  UNL1        0.1003
     22 C         140.0513  140.2485  169.4114 C.3     1  UNL1        0.4348
     23 F         140.1001  139.5564  170.7413 F       1  UNL1       -0.1644
     24 F         138.8135  140.9806  169.8379 F       1  UNL1       -0.1644
     25 F         141.2891  139.5165  168.9849 F       1  UNL1       -0.1644
@<TRIPOS>BOND
     1     1     2    1
     2     2     3   ar
     3     3     4   ar
     4     4     5   ar
     5     5    10    1
     6    10    11   ar
     7    11    12   ar
     8    12    13   ar
     9    13    14   ar
    10    14    15   ar
    11     5     6   ar
    12     6     7   ar
    13     7    16    1
    14    16    17   ar
    15    17    18   ar
    16    18    19   ar
    17    19    22    1
    18    22    23    1
    19    22    24    1
    20    22    25    1
    21    19    20   ar
    22    20    21   ar
    23     7     2   ar
    24    21    16   ar
    25    15    10   ar
    26     1     8    1
    27     1     9    1
