@<TRIPOS>MOLECULE
*****
 35 38 0 0 0
SMALL
GASTEIGER

@<TRIPOS>ATOM
      1 C         141.4464  141.9779  167.6872 C.3     1  UNL1        0.0236
      2 C         142.1860  140.9324  168.4680 C.3     1  UNL1        0.0338
      3 C         141.9325  140.7748  169.9380 C.3     1  UNL1        0.1422
      4 O         140.9393  141.6628  170.6272 O.3     1  UNL1       -0.3538
      5 C         140.1996  142.7084  169.8464 C.3     1  UNL1        0.1422
      6 C         140.4531  142.8660  168.3764 C.3     1  UNL1        0.0338
      7 C         142.2837  141.3810  166.5951 C.3     1  UNL1        0.0045
      8 C         142.4031  139.8910  166.4708 C.3     1  UNL1        0.0174
      9 C         143.2404  139.2942  165.3787 C.3     1  UNL1        0.0724
     10 N         143.9583  140.1874  164.4109 N.3     1  UNL1       -0.2690
     11 C         143.8389  141.6775  164.5351 C.3     1  UNL1        0.0724
     12 C         143.0016  142.2743  165.6272 C.3     1  UNL1        0.0174
     13 C         144.7956  139.5906  163.3187 C.3     1  UNL1        0.0991
     14 C         144.1817  139.2855  161.9846 C.ar    1  UNL1       -0.0061
     15 C         143.7922  137.8780  161.6424 C.ar    1  UNL1       -0.0029
     16 C         143.1782  137.5730  160.3082 C.ar    1  UNL1       -0.0003
     17 C         142.9537  138.6755  159.3162 C.ar    1  UNL1       -0.0000
     18 C         143.3432  140.0831  159.6584 C.ar    1  UNL1       -0.0003
     19 C         143.9572  140.3881  160.9926 C.ar    1  UNL1       -0.0029
     20 C         140.9975  142.8162  166.5271 C.3     1  UNL1        0.0997
     21 C         138.8558  143.5146  165.2328 C.2     1  UNL1        0.2304
     22 O         139.1900  144.9593  165.4594 O.2     1  UNL1       -0.2745
     23 N         139.7595  142.4431  165.7667 N.am    1  UNL1       -0.2439
     24 C         139.4253  140.9984  165.5402 C.ar    1  UNL1        0.1373
     25 C         138.7426  140.2088  166.6175 C.ar    1  UNL1        0.0347
     26 C         138.4084  138.7641  166.3909 C.ar    1  UNL1        0.0044
     27 C         138.7568  138.1092  165.0872 C.ar    1  UNL1        0.0232
     28 C         139.4395  138.8989  164.0101 C.ar    1  UNL1        0.1540
     29 N         139.7737  140.3435  164.2365 N.ar    1  UNL1       -0.2263
     30 C         139.7879  138.2439  162.7063 C.3     1  UNL1        0.4349
     31 F         140.1364  137.5890  161.4026 F       1  UNL1       -0.1644
     32 F         138.6924  137.2413  162.9172 F       1  UNL1       -0.1644
     33 F         140.8835  139.2466  162.4954 F       1  UNL1       -0.1644
     34 C         137.6395  143.1099  162.9730 C.3     1  UNL1        0.0101
     35 C         137.6178  143.1416  164.4725 C.3     1  UNL1        0.0857
@<TRIPOS>BOND
     1    34    35    1
     2    35    21    1
     3    21    22    2
     4    21    23   am
     5    23    20    1
     6    20     1    1
     7     1     7    1
     8     7     8    1
     9     8     9    1
    10     9    10    1
    11    10    13    1
    12    13    14    1
    13    14    15   ar
    14    15    16   ar
    15    16    17   ar
    16    17    18   ar
    17    18    19   ar
    18    10    11    1
    19    11    12    1
    20     1     2    1
    21     2     3    1
    22     3     4    1
    23     4     5    1
    24     5     6    1
    25    23    24    1
    26    24    25   ar
    27    25    26   ar
    28    26    27   ar
    29    27    28   ar
    30    28    30    1
    31    30    31    1
    32    30    32    1
    33    30    33    1
    34    28    29   ar
    35     6     1    1
    36    29    24   ar
    37    12     7    1
    38    19    14   ar
@<TRIPOS>MOLECULE
*****
 35 38 0 0 0
SMALL
GASTEIGER

@<TRIPOS>ATOM
      1 C         141.3911  141.9949  167.6791 C.3     1  UNL1        0.0236
      2 C         142.0634  140.9022  168.4562 C.3     1  UNL1        0.0338
      3 C         141.7548  140.7184  169.9125 C.3     1  UNL1        0.1422
      4 O         140.7737  141.6273  170.5918 O.3     1  UNL1       -0.3538
      5 C         140.1013  142.7200  169.8147 C.3     1  UNL1        0.1422
      6 C         140.4100  142.9039  168.3584 C.3     1  UNL1        0.0338
      7 C         142.2412  141.3929  166.5998 C.3     1  UNL1        0.0045
      8 C         142.3305  139.9022  166.4593 C.3     1  UNL1        0.0174
      9 C         143.1806  139.3002  165.3799 C.3     1  UNL1        0.0724
     10 N         143.9413  140.1890  164.4411 N.3     1  UNL1       -0.2690
     11 C         143.8519  141.6797  164.5816 C.3     1  UNL1        0.0724
     12 C         143.0019  142.2816  165.6609 C.3     1  UNL1        0.0174
     13 C         144.7914  139.5869  163.3617 C.3     1  UNL1        0.0991
     14 C         144.1959  139.2858  162.0184 C.ar    1  UNL1       -0.0061
     15 C         144.1454  140.3518  160.9643 C.ar    1  UNL1       -0.0029
     16 C         143.5498  140.0506  159.6209 C.ar    1  UNL1       -0.0003
     17 C         143.0048  138.6835  159.3316 C.ar    1  UNL1       -0.0000
     18 C         143.0552  137.6174  160.3857 C.ar    1  UNL1       -0.0003
     19 C         143.6508  137.9186  161.7290 C.ar    1  UNL1       -0.0029
     20 C         141.0139  142.8786  166.5272 C.3     1  UNL1        0.0997
     21 C         138.8452  143.6514  165.3234 C.2     1  UNL1        0.2304
     22 O         139.1009  145.0611  165.7677 O.2     1  UNL1       -0.2745
     23 N         139.8017  142.5601  165.7032 N.am    1  UNL1       -0.2439
     24 C         139.5460  141.1504  165.2588 C.ar    1  UNL1        0.1373
     25 C         140.0236  140.6898  163.9136 C.ar    1  UNL1        0.0347
     26 C         139.7679  139.2801  163.4693 C.ar    1  UNL1        0.0044
     27 C         139.0346  138.3311  164.3702 C.ar    1  UNL1        0.0232
     28 C         138.5571  138.7918  165.7154 C.ar    1  UNL1        0.1540
     29 N         138.8127  140.2014  166.1598 N.ar    1  UNL1       -0.2263
     30 C         137.8238  137.8428  166.6165 C.3     1  UNL1        0.4349
     31 F         137.0905  136.8938  167.5174 F       1  UNL1       -0.1644
     32 F         138.2142  136.6984  165.7287 F       1  UNL1       -0.1644
     33 F         137.4334  138.9871  167.5041 F       1  UNL1       -0.1644
     34 C         137.6647  143.5269  163.0123 C.3     1  UNL1        0.0101
     35 C         137.6329  143.3330  164.4993 C.3     1  UNL1        0.0857
@<TRIPOS>BOND
     1    34    35    1
     2    35    21    1
     3    21    22    2
     4    21    23   am
     5    23    20    1
     6    20     1    1
     7     1     7    1
     8     7     8    1
     9     8     9    1
    10     9    10    1
    11    10    13    1
    12    13    14    1
    13    14    15   ar
    14    15    16   ar
    15    16    17   ar
    16    17    18   ar
    17    18    19   ar
    18    10    11    1
    19    11    12    1
    20     1     2    1
    21     2     3    1
    22     3     4    1
    23     4     5    1
    24     5     6    1
    25    23    24    1
    26    24    25   ar
    27    25    26   ar
    28    26    27   ar
    29    27    28   ar
    30    28    30    1
    31    30    31    1
    32    30    32    1
    33    30    33    1
    34    28    29   ar
    35     6     1    1
    36    29    24   ar
    37    12     7    1
    38    19    14   ar
@<TRIPOS>MOLECULE
*****
 35 38 0 0 0
SMALL
GASTEIGER

@<TRIPOS>ATOM
      1 C         140.8410  141.4644  167.7649 C.3     1  UNL1        0.0236
      2 C         141.9585  142.2769  168.3489 C.3     1  UNL1        0.0338
      3 C         142.4464  141.9918  169.7383 C.3     1  UNL1        0.1422
      4 O         141.8168  140.8941  170.5438 O.3     1  UNL1       -0.3538
      5 C         140.6994  140.0816  169.9598 C.3     1  UNL1        0.1422
      6 C         140.2115  140.3667  168.5704 C.3     1  UNL1        0.0338
      7 C         141.1156  142.3917  166.6182 C.3     1  UNL1        0.0045
      8 C         142.5143  142.5503  166.1002 C.3     1  UNL1        0.0174
      9 C         142.7888  143.4776  164.9537 C.3     1  UNL1        0.0724
     10 N         141.6646  144.2464  164.3251 N.3     1  UNL1       -0.2690
     11 C         140.2658  144.0878  164.8431 C.3     1  UNL1        0.0724
     12 C         139.9913  143.1605  165.9897 C.3     1  UNL1        0.0174
     13 C         141.9391  145.1737  163.1784 C.3     1  UNL1        0.0991
     14 C         141.6307  144.7430  161.7751 C.ar    1  UNL1       -0.0061
     15 C         142.4052  143.6225  161.1471 C.ar    1  UNL1       -0.0029
     16 C         142.0967  143.1918  159.7437 C.ar    1  UNL1       -0.0003
     17 C         141.0137  143.8817  158.9684 C.ar    1  UNL1       -0.0000
     18 C         140.2391  145.0023  159.5965 C.ar    1  UNL1       -0.0003
     19 C         140.5476  145.4330  160.9998 C.ar    1  UNL1       -0.0029
     20 C         139.8189  140.9739  166.7827 C.3     1  UNL1        0.0997
     21 C         138.9950  138.7552  165.7109 C.2     1  UNL1        0.2304
     22 O         137.6244  138.9931  166.2723 O.2     1  UNL1       -0.2745
     23 N         140.0922  139.7457  165.9662 N.am    1  UNL1       -0.2439
     24 C         141.4628  139.5079  165.4048 C.ar    1  UNL1        0.1373
     25 C         142.5157  138.8531  166.2490 C.ar    1  UNL1        0.0347
     26 C         143.8862  138.6152  165.6877 C.ar    1  UNL1        0.0044
     27 C         144.2038  139.0323  164.2822 C.ar    1  UNL1        0.0232
     28 C         143.1509  139.6871  163.4382 C.ar    1  UNL1        0.1540
     29 N         141.7803  139.9249  163.9994 N.ar    1  UNL1       -0.2263
     30 C         143.4685  140.1042  162.0327 C.3     1  UNL1        0.4349
     31 F         143.7861  140.5212  160.6273 F       1  UNL1       -0.1644
     32 F         142.0627  139.7828  161.6197 F       1  UNL1       -0.1644
     33 F         144.8742  140.4255  162.4457 F       1  UNL1       -0.1644
     34 C         139.0176  137.5383  163.4156 C.3     1  UNL1        0.0101
     35 C         139.2683  137.5270  164.8944 C.3     1  UNL1        0.0857
@<TRIPOS>BOND
     1    34    35    1
     2    35    21    1
     3    21    22    2
     4    21    23   am
     5    23    20    1
     6    20     1    1
     7     1     7    1
     8     7     8    1
     9     8     9    1
    10     9    10    1
    11    10    13    1
    12    13    14    1
    13    14    15   ar
    14    15    16   ar
    15    16    17   ar
    16    17    18   ar
    17    18    19   ar
    18    10    11    1
    19    11    12    1
    20     1     2    1
    21     2     3    1
    22     3     4    1
    23     4     5    1
    24     5     6    1
    25    23    24    1
    26    24    25   ar
    27    25    26   ar
    28    26    27   ar
    29    27    28   ar
    30    28    30    1
    31    30    31    1
    32    30    32    1
    33    30    33    1
    34    28    29   ar
    35     6     1    1
    36    29    24   ar
    37    12     7    1
    38    19    14   ar
@<TRIPOS>MOLECULE
*****
 35 38 0 0 0
SMALL
GASTEIGER

@<TRIPOS>ATOM
      1 C         143.0319  140.3131  162.1668 C.3     1  UNL1        0.0236
      2 C         143.8058  139.0469  162.3857 C.3     1  UNL1        0.0338
      3 C         144.3823  138.3083  161.2143 C.3     1  UNL1        0.1422
      4 O         144.1849  138.8358  159.8241 O.3     1  UNL1       -0.3538
      5 C         143.4110  140.1019  159.6052 C.3     1  UNL1        0.1422
      6 C         142.8345  140.8406  160.7765 C.3     1  UNL1        0.0338
      7 C         142.9508  140.2133  163.6613 C.3     1  UNL1        0.0045
      8 C         142.6603  138.8925  164.3101 C.3     1  UNL1        0.0174
      9 C         142.5791  138.7927  165.8045 C.3     1  UNL1        0.0724
     10 N         142.7885  140.0138  166.6502 N.3     1  UNL1       -0.2690
     11 C         143.0790  141.3346  166.0014 C.3     1  UNL1        0.0724
     12 C         143.1601  141.4344  164.5069 C.3     1  UNL1        0.0174
     13 C         142.7073  139.9140  168.1447 C.3     1  UNL1        0.0991
     14 C         141.7206  140.7542  168.9000 C.ar    1  UNL1       -0.0061
     15 C         140.3550  140.2145  169.2060 C.ar    1  UNL1       -0.0029
     16 C         139.3683  141.0548  169.9613 C.ar    1  UNL1       -0.0003
     17 C         139.7473  142.4348  170.4106 C.ar    1  UNL1       -0.0000
     18 C         141.1130  142.9746  170.1046 C.ar    1  UNL1       -0.0003
     19 C         142.0996  142.1343  169.3493 C.ar    1  UNL1       -0.0029
     20 C         142.2298  141.5446  162.4669 C.3     1  UNL1        0.0997
     21 C         139.9765  142.7288  161.9472 C.2     1  UNL1        0.2304
     22 O         140.7165  143.9902  161.6133 O.2     1  UNL1       -0.2745
     23 N         140.7333  141.5060  162.3740 N.am    1  UNL1       -0.2439
     24 C         139.9933  140.2446  162.7079 C.ar    1  UNL1        0.1373
     25 C         139.7525  139.2130  161.6460 C.ar    1  UNL1        0.0347
     26 C         139.0125  137.9516  161.9799 C.ar    1  UNL1        0.0044
     27 C         138.5135  137.7220  163.3757 C.ar    1  UNL1        0.0232
     28 C         138.7544  138.7536  164.4375 C.ar    1  UNL1        0.1540
     29 N         139.4943  140.0150  164.1037 N.ar    1  UNL1       -0.2263
     30 C         138.2554  138.5239  165.8334 C.3     1  UNL1        0.4349
     31 F         137.7564  138.2943  167.2292 F       1  UNL1       -0.1644
     32 F         138.5175  137.0545  165.6852 F       1  UNL1       -0.1644
     33 F         137.9933  139.9934  165.9815 F       1  UNL1       -0.1644
     34 C         137.6444  143.1637  163.0066 C.3     1  UNL1        0.0101
     35 C         138.4799  142.6903  161.8543 C.3     1  UNL1        0.0857
@<TRIPOS>BOND
     1    34    35    1
     2    35    21    1
     3    21    22    2
     4    21    23   am
     5    23    20    1
     6    20     1    1
     7     1     7    1
     8     7     8    1
     9     8     9    1
    10     9    10    1
    11    10    13    1
    12    13    14    1
    13    14    15   ar
    14    15    16   ar
    15    16    17   ar
    16    17    18   ar
    17    18    19   ar
    18    10    11    1
    19    11    12    1
    20     1     2    1
    21     2     3    1
    22     3     4    1
    23     4     5    1
    24     5     6    1
    25    23    24    1
    26    24    25   ar
    27    25    26   ar
    28    26    27   ar
    29    27    28   ar
    30    28    30    1
    31    30    31    1
    32    30    32    1
    33    30    33    1
    34    28    29   ar
    35     6     1    1
    36    29    24   ar
    37    12     7    1
    38    19    14   ar
@<TRIPOS>MOLECULE
*****
 35 38 0 0 0
SMALL
GASTEIGER

@<TRIPOS>ATOM
      1 C         139.3522  140.5276  162.4351 C.3     1  UNL1        0.0236
      2 C         139.9311  139.1868  162.0932 C.3     1  UNL1        0.0338
      3 C         139.5965  138.5373  160.7832 C.3     1  UNL1        0.1422
      4 O         138.6830  139.2288  159.8149 O.3     1  UNL1       -0.3538
      5 C         138.1041  140.5697  160.1568 C.3     1  UNL1        0.1422
      6 C         138.4387  141.2191  161.4669 C.3     1  UNL1        0.0338
      7 C         140.1623  140.2708  163.6712 C.3     1  UNL1        0.0045
      8 C         141.5891  139.8233  163.5532 C.3     1  UNL1        0.0174
      9 C         142.3992  139.5666  164.7892 C.3     1  UNL1        0.0724
     10 N         141.7825  139.7574  166.1432 N.3     1  UNL1       -0.2690
     11 C         140.3557  140.2049  166.2612 C.3     1  UNL1        0.0724
     12 C         139.5456  140.4616  165.0252 C.3     1  UNL1        0.0174
     13 C         142.5927  139.5006  167.3793 C.3     1  UNL1        0.0991
     14 C         142.4274  140.3829  168.5810 C.ar    1  UNL1       -0.0061
     15 C         141.6761  139.8845  169.7798 C.ar    1  UNL1       -0.0029
     16 C         141.5109  140.7668  170.9816 C.ar    1  UNL1       -0.0003
     17 C         142.0970  142.1475  170.9846 C.ar    1  UNL1       -0.0000
     18 C         142.8483  142.6460  169.7858 C.ar    1  UNL1       -0.0003
     19 C         143.0135  141.7637  168.5840 C.ar    1  UNL1       -0.0029
     20 C         139.0546  141.7793  163.2063 C.3     1  UNL1        0.0997
     21 C         138.9463  144.3045  162.6047 C.2     1  UNL1        0.2304
     22 O         137.4506  144.2657  162.7116 O.2     1  UNL1       -0.2745
     23 N         139.7483  143.0612  162.8521 N.am    1  UNL1       -0.2439
     24 C         141.2440  143.0999  162.7452 C.ar    1  UNL1        0.1373
     25 C         141.9078  142.8600  161.4217 C.ar    1  UNL1        0.0347
     26 C         143.4035  142.8987  161.3148 C.ar    1  UNL1        0.0044
     27 C         144.2353  143.1773  162.5315 C.ar    1  UNL1        0.0232
     28 C         143.5715  143.4173  163.8550 C.ar    1  UNL1        0.1540
     29 N         142.0759  143.3786  163.9619 N.ar    1  UNL1       -0.2263
     30 C         144.4034  143.6960  165.0718 C.3     1  UNL1        0.4349
     31 F         145.2353  143.9746  166.2885 F       1  UNL1       -0.1644
     32 F         144.4773  142.2254  165.3580 F       1  UNL1       -0.1644
     33 F         144.3295  145.1665  164.7855 F       1  UNL1       -0.1644
     34 C         139.9658  145.8921  160.8186 C.3     1  UNL1        0.0101
     35 C         139.6400  145.5864  162.2505 C.3     1  UNL1        0.0857
@<TRIPOS>BOND
     1    34    35    1
     2    35    21    1
     3    21    22    2
     4    21    23   am
     5    23    20    1
     6    20     1    1
     7     1     7    1
     8     7     8    1
     9     8     9    1
    10     9    10    1
    11    10    13    1
    12    13    14    1
    13    14    15   ar
    14    15    16   ar
    15    16    17   ar
    16    17    18   ar
    17    18    19   ar
    18    10    11    1
    19    11    12    1
    20     1     2    1
    21     2     3    1
    22     3     4    1
    23     4     5    1
    24     5     6    1
    25    23    24    1
    26    24    25   ar
    27    25    26   ar
    28    26    27   ar
    29    27    28   ar
    30    28    30    1
    31    30    31    1
    32    30    32    1
    33    30    33    1
    34    28    29   ar
    35     6     1    1
    36    29    24   ar
    37    12     7    1
    38    19    14   ar
@<TRIPOS>MOLECULE
*****
 35 38 0 0 0
SMALL
GASTEIGER

@<TRIPOS>ATOM
      1 C         139.3197  141.8949  162.4231 C.3     1  UNL1        0.0236
      2 C         139.2680  143.1824  163.1908 C.3     1  UNL1        0.0338
      3 C         139.2679  144.4921  162.4596 C.3     1  UNL1        0.1422
      4 O         139.3195  144.5142  160.9606 O.3     1  UNL1       -0.3538
      5 C         139.3711  143.2266  160.1929 C.3     1  UNL1        0.1422
      6 C         139.3713  141.9169  160.9241 C.3     1  UNL1        0.0338
      7 C         139.2815  141.3612  163.8245 C.3     1  UNL1        0.0045
      8 C         138.3347  140.2533  164.1796 C.3     1  UNL1        0.0174
      9 C         138.2965  139.7197  165.5809 C.3     1  UNL1        0.0724
     10 N         139.2051  140.2940  166.6272 N.3     1  UNL1       -0.2690
     11 C         140.1519  141.4019  166.2721 C.3     1  UNL1        0.0724
     12 C         140.1901  141.9355  164.8707 C.3     1  UNL1        0.0174
     13 C         139.1669  139.7604  168.0286 C.3     1  UNL1        0.0991
     14 C         140.1118  140.2981  169.0619 C.ar    1  UNL1       -0.0061
     15 C         141.4837  139.7081  169.2032 C.ar    1  UNL1       -0.0029
     16 C         142.4286  140.2459  170.2366 C.ar    1  UNL1       -0.0003
     17 C         142.0018  141.3737  171.1287 C.ar    1  UNL1       -0.0000
     18 C         140.6299  141.9637  170.9874 C.ar    1  UNL1       -0.0003
     19 C         139.6850  141.4260  169.9540 C.ar    1  UNL1       -0.0029
     20 C         139.3581  140.4219  162.1421 C.3     1  UNL1        0.0997
     21 C         140.7228  138.8483  160.5893 C.2     1  UNL1        0.2304
     22 O         139.4947  138.5956  159.7660 O.2     1  UNL1       -0.2745
     23 N         140.6545  139.7615  161.7773 N.am    1  UNL1       -0.2439
     24 C         141.8827  140.0142  162.6006 C.ar    1  UNL1        0.1373
     25 C         142.8330  141.1083  162.2135 C.ar    1  UNL1        0.0347
     26 C         144.0612  141.3610  163.0368 C.ar    1  UNL1        0.0044
     27 C         144.3389  140.5197  164.2472 C.ar    1  UNL1        0.0232
     28 C         143.3885  139.4257  164.6342 C.ar    1  UNL1        0.1540
     29 N         142.1604  139.1729  163.8110 N.ar    1  UNL1       -0.2263
     30 C         143.6663  138.5843  165.8447 C.3     1  UNL1        0.4349
     31 F         143.9440  137.7430  167.0551 F       1  UNL1       -0.1644
     32 F         145.1296  138.5932  165.5150 F       1  UNL1       -0.1644
     33 F         142.2030  138.5755  166.1743 F       1  UNL1       -0.1644
     34 C         142.9270  138.8243  159.2140 C.3     1  UNL1        0.0101
     35 C         142.0192  138.1879  160.2245 C.3     1  UNL1        0.0857
@<TRIPOS>BOND
     1    34    35    1
     2    35    21    1
     3    21    22    2
     4    21    23   am
     5    23    20    1
     6    20     1    1
     7     1     7    1
     8     7     8    1
     9     8     9    1
    10     9    10    1
    11    10    13    1
    12    13    14    1
    13    14    15   ar
    14    15    16   ar
    15    16    17   ar
    16    17    18   ar
    17    18    19   ar
    18    10    11    1
    19    11    12    1
    20     1     2    1
    21     2     3    1
    22     3     4    1
    23     4     5    1
    24     5     6    1
    25    23    24    1
    26    24    25   ar
    27    25    26   ar
    28    26    27   ar
    29    27    28   ar
    30    28    30    1
    31    30    31    1
    32    30    32    1
    33    30    33    1
    34    28    29   ar
    35     6     1    1
    36    29    24   ar
    37    12     7    1
    38    19    14   ar
@<TRIPOS>MOLECULE
*****
 35 38 0 0 0
SMALL
GASTEIGER

@<TRIPOS>ATOM
      1 C         143.3366  140.6928  162.2108 C.3     1  UNL1        0.0236
      2 C         143.6203  139.2288  162.3725 C.3     1  UNL1        0.0338
      3 C         143.9554  138.3929  161.1730 C.3     1  UNL1        0.1422
      4 O         144.0069  139.0210  159.8118 O.3     1  UNL1       -0.3538
      5 C         143.7231  140.4849  159.6501 C.3     1  UNL1        0.1422
      6 C         143.3880  141.3209  160.8496 C.3     1  UNL1        0.0338
      7 C         143.1660  140.5568  163.6949 C.3     1  UNL1        0.0045
      8 C         142.4304  139.3783  164.2605 C.3     1  UNL1        0.0174
      9 C         142.2599  139.2423  165.7445 C.3     1  UNL1        0.0724
     10 N         142.8250  140.2849  166.6630 N.3     1  UNL1       -0.2690
     11 C         143.5606  141.4634  166.0975 C.3     1  UNL1        0.0724
     12 C         143.7311  141.5994  164.6135 C.3     1  UNL1        0.0174
     13 C         142.6545  140.1489  168.1471 C.3     1  UNL1        0.0991
     14 C         141.7204  141.0642  168.8817 C.ar    1  UNL1       -0.0061
     15 C         140.3572  140.5819  169.2806 C.ar    1  UNL1       -0.0029
     16 C         139.4231  141.4973  170.0152 C.ar    1  UNL1       -0.0003
     17 C         139.8522  142.8948  170.3509 C.ar    1  UNL1       -0.0000
     18 C         141.2154  143.3770  169.9521 C.ar    1  UNL1       -0.0003
     19 C         142.1495  142.4618  169.2175 C.ar    1  UNL1       -0.0029
     20 C         142.9936  142.1096  162.5646 C.3     1  UNL1        0.0997
     21 C         141.3191  143.8234  161.5602 C.2     1  UNL1        0.2304
     22 O         142.4549  144.5442  160.8965 O.2     1  UNL1       -0.2745
     23 N         141.5885  142.6061  162.3942 N.am    1  UNL1       -0.2439
     24 C         140.4527  141.8853  163.0579 C.ar    1  UNL1        0.1373
     25 C         140.0273  142.2708  164.4437 C.ar    1  UNL1        0.0347
     26 C         138.8915  141.5500  165.1073 C.ar    1  UNL1        0.0044
     27 C         138.1812  140.4437  164.3852 C.ar    1  UNL1        0.0232
     28 C         138.6066  140.0582  162.9994 C.ar    1  UNL1        0.1540
     29 N         139.7424  140.7790  162.3357 N.ar    1  UNL1       -0.2263
     30 C         137.8962  138.9519  162.2772 C.3     1  UNL1        0.4349
     31 F         137.1859  137.8456  161.5551 F       1  UNL1       -0.1644
     32 F         138.4594  137.9567  163.2480 F       1  UNL1       -0.1644
     33 F         137.3330  139.9471  161.3065 F       1  UNL1       -0.1644
     34 C         139.3805  145.3879  162.2979 C.3     1  UNL1        0.0101
     35 C         139.9140  144.3199  161.3897 C.3     1  UNL1        0.0857
@<TRIPOS>BOND
     1    34    35    1
     2    35    21    1
     3    21    22    2
     4    21    23   am
     5    23    20    1
     6    20     1    1
     7     1     7    1
     8     7     8    1
     9     8     9    1
    10     9    10    1
    11    10    13    1
    12    13    14    1
    13    14    15   ar
    14    15    16   ar
    15    16    17   ar
    16    17    18   ar
    17    18    19   ar
    18    10    11    1
    19    11    12    1
    20     1     2    1
    21     2     3    1
    22     3     4    1
    23     4     5    1
    24     5     6    1
    25    23    24    1
    26    24    25   ar
    27    25    26   ar
    28    26    27   ar
    29    27    28   ar
    30    28    30    1
    31    30    31    1
    32    30    32    1
    33    30    33    1
    34    28    29   ar
    35     6     1    1
    36    29    24   ar
    37    12     7    1
    38    19    14   ar
@<TRIPOS>MOLECULE
*****
 35 38 0 0 0
SMALL
GASTEIGER

@<TRIPOS>ATOM
      1 C         142.2508  140.6489  161.5417 C.3     1  UNL1        0.0236
      2 C         142.0093  139.3146  162.1829 C.3     1  UNL1        0.0338
      3 C         141.7158  138.1153  161.3311 C.3     1  UNL1        0.1422
      4 O         141.6637  138.2504  159.8381 O.3     1  UNL1       -0.3538
      5 C         141.9052  139.5847  159.1969 C.3     1  UNL1        0.1422
      6 C         142.1987  140.7840  160.0486 C.3     1  UNL1        0.0338
      7 C         142.4053  141.0223  162.9863 C.3     1  UNL1        0.0045
      8 C         141.3472  140.6381  163.9776 C.3     1  UNL1        0.0174
      9 C         141.5018  141.0115  165.4221 C.3     1  UNL1        0.0724
     10 N         142.7145  141.7691  165.8752 N.3     1  UNL1       -0.2690
     11 C         143.7726  142.1533  164.8839 C.3     1  UNL1        0.0724
     12 C         143.6180  141.7799  163.4394 C.3     1  UNL1        0.0174
     13 C         142.8691  142.1425  167.3198 C.3     1  UNL1        0.0991
     14 C         141.9922  141.5060  168.3570 C.ar    1  UNL1       -0.0061
     15 C         140.7394  142.1974  168.8068 C.ar    1  UNL1       -0.0029
     16 C         139.8625  141.5608  169.8441 C.ar    1  UNL1       -0.0003
     17 C         140.2384  140.2327  170.4314 C.ar    1  UNL1       -0.0000
     18 C         141.4912  139.5413  169.9815 C.ar    1  UNL1       -0.0003
     19 C         142.3681  140.1779  168.9444 C.ar    1  UNL1       -0.0029
     20 C         142.5460  142.1130  161.4021 C.3     1  UNL1        0.0997
     21 C         141.6169  144.0760  159.9763 C.2     1  UNL1        0.2304
     22 O         142.8991  144.1182  159.1989 O.2     1  UNL1       -0.2745
     23 N         141.4404  143.0734  161.0779 N.am    1  UNL1       -0.2439
     24 C         140.1582  143.0312  161.8552 C.ar    1  UNL1        0.1373
     25 C         139.0375  142.1414  161.4055 C.ar    1  UNL1        0.0347
     26 C         137.7552  142.0993  162.1829 C.ar    1  UNL1        0.0044
     27 C         137.5939  142.9469  163.4099 C.ar    1  UNL1        0.0232
     28 C         138.7146  143.8366  163.8595 C.ar    1  UNL1        0.1540
     29 N         139.9968  143.8788  163.0822 N.ar    1  UNL1       -0.2263
     30 C         138.5532  144.6842  165.0866 C.3     1  UNL1        0.4349
     31 F         138.3918  145.5318  166.3136 F       1  UNL1       -0.1644
     32 F         140.0095  145.0395  165.0326 F       1  UNL1       -0.1644
     33 F         137.0969  144.3289  165.1405 F       1  UNL1       -0.1644
     34 C         140.3346  145.5299  158.2465 C.3     1  UNL1        0.0101
     35 C         140.5113  145.0365  159.6520 C.3     1  UNL1        0.0857
@<TRIPOS>BOND
     1    34    35    1
     2    35    21    1
     3    21    22    2
     4    21    23   am
     5    23    20    1
     6    20     1    1
     7     1     7    1
     8     7     8    1
     9     8     9    1
    10     9    10    1
    11    10    13    1
    12    13    14    1
    13    14    15   ar
    14    15    16   ar
    15    16    17   ar
    16    17    18   ar
    17    18    19   ar
    18    10    11    1
    19    11    12    1
    20     1     2    1
    21     2     3    1
    22     3     4    1
    23     4     5    1
    24     5     6    1
    25    23    24    1
    26    24    25   ar
    27    25    26   ar
    28    26    27   ar
    29    27    28   ar
    30    28    30    1
    31    30    31    1
    32    30    32    1
    33    30    33    1
    34    28    29   ar
    35     6     1    1
    36    29    24   ar
    37    12     7    1
    38    19    14   ar
@<TRIPOS>MOLECULE
*****
 35 38 0 0 0
SMALL
GASTEIGER

@<TRIPOS>ATOM
      1 C         139.5908  141.1692  166.1878 C.3     1  UNL1        0.0236
      2 C         138.8769  140.4792  165.0635 C.3     1  UNL1        0.0338
      3 C         138.0192  139.2808  165.3431 C.3     1  UNL1        0.1422
      4 O         137.8756  138.7723  166.7470 O.3     1  UNL1       -0.3538
      5 C         138.5896  139.4623  167.8713 C.3     1  UNL1        0.1422
      6 C         139.4472  140.6608  167.5917 C.3     1  UNL1        0.0338
      7 C         140.0362  142.0199  165.0354 C.3     1  UNL1        0.0045
      8 C         140.4275  141.3788  163.7371 C.3     1  UNL1        0.0174
      9 C         140.8728  142.2295  162.5847 C.3     1  UNL1        0.0724
     10 N         140.9269  143.7214  162.7308 N.3     1  UNL1       -0.2690
     11 C         140.5356  144.3625  164.0291 C.3     1  UNL1        0.0724
     12 C         140.0903  143.5118  165.1814 C.3     1  UNL1        0.0174
     13 C         141.3722  144.5721  161.5783 C.3     1  UNL1        0.0991
     14 C         142.2388  143.9853  160.5038 C.ar    1  UNL1       -0.0061
     15 C         143.4692  143.2105  160.8723 C.ar    1  UNL1       -0.0029
     16 C         144.3358  142.6237  159.7977 C.ar    1  UNL1       -0.0003
     17 C         143.9720  142.8117  158.3547 C.ar    1  UNL1       -0.0000
     18 C         142.7416  143.5865  157.9862 C.ar    1  UNL1       -0.0003
     19 C         141.8750  144.1733  159.0607 C.ar    1  UNL1       -0.0029
     20 C         140.4595  142.1547  166.9119 C.3     1  UNL1        0.0997
     21 C         142.2080  142.1383  168.8335 C.2     1  UNL1        0.2304
     22 O         141.2938  142.9813  169.6725 O.2     1  UNL1       -0.2745
     23 N         141.7908  141.7251  167.4532 N.am    1  UNL1       -0.2439
     24 C         142.7050  140.8821  166.6142 C.ar    1  UNL1        0.1373
     25 C         142.7820  139.4019  166.8445 C.ar    1  UNL1        0.0347
     26 C         143.6961  138.5590  166.0056 C.ar    1  UNL1        0.0044
     27 C         144.5332  139.1963  164.9364 C.ar    1  UNL1        0.0232
     28 C         144.4561  140.6765  164.7062 C.ar    1  UNL1        0.1540
     29 N         143.5420  141.5194  165.5451 N.ar    1  UNL1       -0.2263
     30 C         145.2932  141.3138  163.6369 C.3     1  UNL1        0.4349
     31 F         146.1303  141.9512  162.5678 F       1  UNL1       -0.1644
     32 F         145.5983  142.4579  164.5578 F       1  UNL1       -0.1644
     33 F         144.9882  140.1697  162.7161 F       1  UNL1       -0.1644
     34 C         144.4592  142.7195  169.9930 C.3     1  UNL1        0.0101
     35 C         143.5393  141.7087  169.3749 C.3     1  UNL1        0.0857
@<TRIPOS>BOND
     1    34    35    1
     2    35    21    1
     3    21    22    2
     4    21    23   am
     5    23    20    1
     6    20     1    1
     7     1     7    1
     8     7     8    1
     9     8     9    1
    10     9    10    1
    11    10    13    1
    12    13    14    1
    13    14    15   ar
    14    15    16   ar
    15    16    17   ar
    16    17    18   ar
    17    18    19   ar
    18    10    11    1
    19    11    12    1
    20     1     2    1
    21     2     3    1
    22     3     4    1
    23     4     5    1
    24     5     6    1
    25    23    24    1
    26    24    25   ar
    27    25    26   ar
    28    26    27   ar
    29    27    28   ar
    30    28    30    1
    31    30    31    1
    32    30    32    1
    33    30    33    1
    34    28    29   ar
    35     6     1    1
    36    29    24   ar
    37    12     7    1
    38    19    14   ar
