@<TRIPOS>MOLECULE
*****
 30 34 0 0 0
SMALL
GASTEIGER

@<TRIPOS>ATOM
      1 C         145.0353  140.9650  163.6537 C.3     1  UNL1        0.0294
      2 C         145.3569  142.1977  162.8618 C.3     1  UNL1        0.0666
      3 S         144.4303  143.3766  162.8998 S.3     1  UNL1       -0.0756
      4 C         140.6777  142.5806  163.4918 C.ar    1  UNL1        0.2029
      5 N         141.0224  143.3100  164.7564 N.ar    1  UNL1       -0.1250
      6 N         142.4700  143.6970  164.6886 N.ar    1  UNL1       -0.1220
      7 C         143.0201  143.2067  163.3820 C.ar    1  UNL1        0.1933
      8 N         141.9124  142.5168  162.6423 N.ar    1  UNL1       -0.2860
      9 C         142.0205  141.8756  161.2906 C.3     1  UNL1        0.1341
     10 C         137.7954  144.0280  163.9888 C.3     1  UNL1        0.0556
     11 C         138.0094  142.6798  163.3671 C.ar    1  UNL1        0.1001
     12 N         136.9362  141.7601  162.8646 N.ar    1  UNL1       -0.2085
     13 C         137.5978  140.5265  162.3256 C.ar    1  UNL1        0.2849
     14 O         139.0799  140.6837  162.4950 O.2     1  UNL1       -0.4283
     15 C         139.3343  142.0145  163.1386 C.ar    1  UNL1        0.1964
     16 C         144.8255  139.6561  162.9517 C.3     1  UNL1        0.0730
     17 N         143.4787  138.9962  162.9820 N.3     1  UNL1       -0.2724
     18 C         142.9263  138.0715  161.9381 C.3     1  UNL1        0.0725
     19 C         141.5542  137.6490  162.3725 C.3     1  UNL1        0.0227
     20 C         141.2586  138.3126  163.6849 C.3     1  UNL1        0.0350
     21 C         140.0691  137.4800  163.3081 C.3     1  UNL1        0.0101
     22 C         139.0384  137.6290  164.3877 C.3     1  UNL1        0.0269
     23 C         139.5908  138.5536  165.4316 C.ar    1  UNL1       -0.0199
     24 C         139.0217  139.0655  166.7216 C.ar    1  UNL1        0.0303
     25 BR        137.6496  138.6430  167.1560 Br      1  UNL1       -0.0493
     26 C         139.8247  139.9998  167.5772 C.ar    1  UNL1        0.0064
     27 C         141.1968  140.4224  167.1429 C.ar    1  UNL1        0.0002
     28 C         141.7660  139.9105  165.8529 C.ar    1  UNL1       -0.0045
     29 C         140.9629  138.9761  164.9972 C.ar    1  UNL1       -0.0249
     30 C         142.4480  139.1452  164.0616 C.3     1  UNL1        0.0761
@<TRIPOS>BOND
     1    10    11    1
     2    11    12   ar
     3    12    13   ar
     4    13    14   ar
     5    14    15   ar
     6    15     4    1
     7     4     5   ar
     8     5     6   ar
     9     6     7   ar
    10     7     3    1
    11     3     2    1
    12     2     1    1
    13     1    16    1
    14    16    17    1
    15    17    18    1
    16    18    19    1
    17    19    20    1
    18    20    21    1
    19    21    22    1
    20    22    23    1
    21    23    24   ar
    22    24    25    1
    23    24    26   ar
    24    26    27   ar
    25    27    28   ar
    26    28    29   ar
    27    20    30    1
    28     7     8   ar
    29     8     9    1
    30    15    11   ar
    31     8     4   ar
    32    30    17    1
    33    29    20    1
    34    29    23   ar
@<TRIPOS>MOLECULE
*****
 30 34 0 0 0
SMALL
GASTEIGER

@<TRIPOS>ATOM
      1 C         143.4642  138.3902  162.4418 C.3     1  UNL1        0.0294
      2 C         144.1931  139.2116  161.4201 C.3     1  UNL1        0.0666
      3 S         143.5286  140.4086  160.8072 S.3     1  UNL1       -0.0756
      4 C         141.2085  142.7947  162.8045 C.ar    1  UNL1        0.2029
      5 N         142.5607  143.2509  163.2668 N.ar    1  UNL1       -0.1250
      6 N         143.5944  142.4125  162.5749 N.ar    1  UNL1       -0.1220
      7 C         142.8811  141.4382  161.6849 C.ar    1  UNL1        0.1933
      8 N         141.4066  141.6744  161.8268 N.ar    1  UNL1       -0.2860
      9 C         140.3208  140.9224  161.1159 C.3     1  UNL1        0.1341
     10 C         140.1188  142.9609  165.8761 C.3     1  UNL1        0.0556
     11 C         139.3891  143.4360  164.6547 C.ar    1  UNL1        0.1001
     12 N         138.0303  144.0709  164.6308 N.ar    1  UNL1       -0.2085
     13 C         137.6914  144.3870  163.2041 C.ar    1  UNL1        0.2849
     14 O         138.8407  143.9474  162.3464 O.2     1  UNL1       -0.4283
     15 C         139.8899  143.3596  163.2429 C.ar    1  UNL1        0.1964
     16 C         142.1212  137.8070  162.1160 C.3     1  UNL1        0.0730
     17 N         140.9715  137.9979  163.0603 N.3     1  UNL1       -0.2724
     18 C         139.5445  137.6153  162.8008 C.3     1  UNL1        0.0725
     19 C         138.7380  137.9859  164.0100 C.3     1  UNL1        0.0227
     20 C         139.6666  138.5976  165.0169 C.3     1  UNL1        0.0350
     21 C         138.2862  138.5902  165.6038 C.3     1  UNL1        0.0101
     22 C         138.3617  139.1973  166.9734 C.3     1  UNL1        0.0269
     23 C         139.7887  139.5798  167.2329 C.ar    1  UNL1       -0.0199
     24 C         140.4579  140.2178  168.4140 C.ar    1  UNL1        0.0303
     25 BR        139.6515  140.5884  169.6233 Br      1  UNL1       -0.0493
     26 C         141.9336  140.4851  168.3859 C.ar    1  UNL1        0.0064
     27 C         142.7401  140.1145  167.1768 C.ar    1  UNL1        0.0002
     28 C         142.0708  139.4766  165.9956 C.ar    1  UNL1       -0.0045
     29 C         140.5951  139.2092  166.0237 C.ar    1  UNL1       -0.0249
     30 C         141.0470  138.6050  164.4299 C.3     1  UNL1        0.0761
@<TRIPOS>BOND
     1    10    11    1
     2    11    12   ar
     3    12    13   ar
     4    13    14   ar
     5    14    15   ar
     6    15     4    1
     7     4     5   ar
     8     5     6   ar
     9     6     7   ar
    10     7     3    1
    11     3     2    1
    12     2     1    1
    13     1    16    1
    14    16    17    1
    15    17    18    1
    16    18    19    1
    17    19    20    1
    18    20    21    1
    19    21    22    1
    20    22    23    1
    21    23    24   ar
    22    24    25    1
    23    24    26   ar
    24    26    27   ar
    25    27    28   ar
    26    28    29   ar
    27    20    30    1
    28     7     8   ar
    29     8     9    1
    30    15    11   ar
    31     8     4   ar
    32    30    17    1
    33    29    20    1
    34    29    23   ar
@<TRIPOS>MOLECULE
*****
 30 34 0 0 0
SMALL
GASTEIGER

@<TRIPOS>ATOM
      1 C         140.2905  137.3330  163.0252 C.3     1  UNL1        0.0294
      2 C         138.8753  137.7908  163.2190 C.3     1  UNL1        0.0666
      3 S         138.2090  138.6322  162.1711 S.3     1  UNL1       -0.0756
      4 C         138.7287  142.4733  162.3739 C.ar    1  UNL1        0.2029
      5 N         137.3051  142.3489  162.8300 N.ar    1  UNL1       -0.1250
      6 N         136.9371  140.8949  162.8095 N.ar    1  UNL1       -0.1220
      7 C         138.1333  140.1206  162.3408 C.ar    1  UNL1        0.1933
      8 N         139.2406  141.0961  162.0716 N.ar    1  UNL1       -0.2860
      9 C         140.6178  140.7544  161.5854 C.3     1  UNL1        0.1341
     10 C         140.5983  143.8270  164.6807 C.3     1  UNL1        0.0556
     11 C         140.3636  144.3728  163.3034 C.ar    1  UNL1        0.1001
     12 N         140.9470  145.6367  162.7446 N.ar    1  UNL1       -0.2085
     13 C         140.4482  145.7956  161.3389 C.ar    1  UNL1        0.2849
     14 O         139.5565  144.6299  161.0290 O.2     1  UNL1       -0.4283
     15 C         139.5042  143.7506  162.2431 C.ar    1  UNL1        0.1964
     16 C         141.2254  137.2693  164.1965 C.3     1  UNL1        0.0730
     17 N         141.8939  138.5176  164.6913 N.3     1  UNL1       -0.2724
     18 C         143.1087  139.1634  164.0936 C.3     1  UNL1        0.0725
     19 C         143.4305  140.3841  164.9036 C.3     1  UNL1        0.0227
     20 C         142.4147  140.4928  166.0019 C.3     1  UNL1        0.0350
     21 C         143.3644  141.6464  166.1332 C.3     1  UNL1        0.0101
     22 C         142.9354  142.4681  167.3126 C.3     1  UNL1        0.0269
     23 C         141.7207  141.8222  167.9102 C.ar    1  UNL1       -0.0199
     24 C         140.8660  142.1881  169.0873 C.ar    1  UNL1        0.0303
     25 BR        141.1878  143.4088  169.8973 Br      1  UNL1       -0.0493
     26 C         139.6895  141.3331  169.4544 C.ar    1  UNL1        0.0064
     27 C         139.3676  140.1124  168.6445 C.ar    1  UNL1        0.0002
     28 C         140.2223  139.7466  167.4673 C.ar    1  UNL1       -0.0045
     29 C         141.3988  140.6015  167.1002 C.ar    1  UNL1       -0.0249
     30 C         141.4650  139.3392  165.8707 C.3     1  UNL1        0.0761
@<TRIPOS>BOND
     1    10    11    1
     2    11    12   ar
     3    12    13   ar
     4    13    14   ar
     5    14    15   ar
     6    15     4    1
     7     4     5   ar
     8     5     6   ar
     9     6     7   ar
    10     7     3    1
    11     3     2    1
    12     2     1    1
    13     1    16    1
    14    16    17    1
    15    17    18    1
    16    18    19    1
    17    19    20    1
    18    20    21    1
    19    21    22    1
    20    22    23    1
    21    23    24   ar
    22    24    25    1
    23    24    26   ar
    24    26    27   ar
    25    27    28   ar
    26    28    29   ar
    27    20    30    1
    28     7     8   ar
    29     8     9    1
    30    15    11   ar
    31     8     4   ar
    32    30    17    1
    33    29    20    1
    34    29    23   ar
@<TRIPOS>MOLECULE
*****
 30 34 0 0 0
SMALL
GASTEIGER

@<TRIPOS>ATOM
      1 C         138.1658  138.6212  161.4403 C.3     1  UNL1        0.0294
      2 C         137.5609  139.9540  161.7686 C.3     1  UNL1        0.0666
      3 S         137.8795  141.1511  160.9228 S.3     1  UNL1       -0.0756
      4 C         140.4916  143.5885  162.4398 C.ar    1  UNL1        0.2029
      5 N         139.2910  144.4811  162.3311 N.ar    1  UNL1       -0.1250
      6 N         138.1664  143.6767  161.7497 N.ar    1  UNL1       -0.1220
      7 C         138.6719  142.2869  161.4989 C.ar    1  UNL1        0.1933
      8 N         140.1090  142.2323  161.9254 N.ar    1  UNL1       -0.2860
      9 C         141.0059  141.0324  161.8507 C.3     1  UNL1        0.1341
     10 C         141.7161  142.7843  165.3559 C.3     1  UNL1        0.0556
     11 C         142.4012  143.6131  164.3101 C.ar    1  UNL1        0.1001
     12 N         143.7694  144.2178  164.4210 N.ar    1  UNL1       -0.2085
     13 C         144.0522  144.9612  163.1492 C.ar    1  UNL1        0.2849
     14 O         142.8588  144.8159  162.2522 O.2     1  UNL1       -0.4283
     15 C         141.8384  143.9828  162.9697 C.ar    1  UNL1        0.1964
     16 C         138.6000  137.7023  162.5435 C.3     1  UNL1        0.0730
     17 N         139.9286  137.9054  163.2095 N.3     1  UNL1       -0.2724
     18 C         141.2683  137.5665  162.6261 C.3     1  UNL1        0.0725
     19 C         142.3184  137.9347  163.6320 C.3     1  UNL1        0.0227
     20 C         141.6277  138.5012  164.8370 C.3     1  UNL1        0.0350
     21 C         143.1047  138.5193  165.0981 C.3     1  UNL1        0.0101
     22 C         143.3268  139.0970  166.4644 C.3     1  UNL1        0.0269
     23 C         141.9871  139.4359  167.0478 C.ar    1  UNL1       -0.0199
     24 C         141.5878  140.0322  168.3649 C.ar    1  UNL1        0.0303
     25 BR        142.6379  140.4004  169.3708 Br      1  UNL1       -0.0493
     26 C         140.1383  140.2603  168.6763 C.ar    1  UNL1        0.0064
     27 C         139.0882  139.8921  167.6705 C.ar    1  UNL1        0.0002
     28 C         139.4876  139.2958  166.3534 C.ar    1  UNL1       -0.0045
     29 C         140.9370  139.0677  166.0420 C.ar    1  UNL1       -0.0249
     30 C         140.1507  138.4831  164.5759 C.3     1  UNL1        0.0761
@<TRIPOS>BOND
     1    10    11    1
     2    11    12   ar
     3    12    13   ar
     4    13    14   ar
     5    14    15   ar
     6    15     4    1
     7     4     5   ar
     8     5     6   ar
     9     6     7   ar
    10     7     3    1
    11     3     2    1
    12     2     1    1
    13     1    16    1
    14    16    17    1
    15    17    18    1
    16    18    19    1
    17    19    20    1
    18    20    21    1
    19    21    22    1
    20    22    23    1
    21    23    24   ar
    22    24    25    1
    23    24    26   ar
    24    26    27   ar
    25    27    28   ar
    26    28    29   ar
    27    20    30    1
    28     7     8   ar
    29     8     9    1
    30    15    11   ar
    31     8     4   ar
    32    30    17    1
    33    29    20    1
    34    29    23   ar
@<TRIPOS>MOLECULE
*****
 30 34 0 0 0
SMALL
GASTEIGER

@<TRIPOS>ATOM
      1 C         141.6859  144.8784  163.8267 C.3     1  UNL1        0.0294
      2 C         140.9544  145.5717  162.7157 C.3     1  UNL1        0.0666
      3 S         139.4920  145.3134  162.5048 S.3     1  UNL1       -0.0756
      4 C         138.3578  141.6579  163.1503 C.ar    1  UNL1        0.2029
      5 N         137.5474  142.3978  164.1730 N.ar    1  UNL1       -0.1250
      6 N         137.8736  143.8572  164.0556 N.ar    1  UNL1       -0.1220
      7 C         138.8857  144.0193  162.9604 C.ar    1  UNL1        0.1933
      8 N         139.1850  142.6601  162.4009 N.ar    1  UNL1       -0.2860
      9 C         140.1431  142.3564  161.2875 C.3     1  UNL1        0.1341
     10 C         139.6386  139.3946  165.1218 C.3     1  UNL1        0.0556
     11 C         138.9323  139.1358  163.8241 C.ar    1  UNL1        0.1001
     12 N         138.6907  137.7912  163.2046 N.ar    1  UNL1       -0.2085
     13 C         137.9528  138.0005  161.9156 C.ar    1  UNL1        0.2849
     14 O         137.7382  139.4744  161.7384 O.2     1  UNL1       -0.4283
     15 C         138.3436  140.1761  162.9179 C.ar    1  UNL1        0.1964
     16 C         142.9504  144.1253  163.5370 C.3     1  UNL1        0.0730
     17 N         143.0935  142.7003  163.9830 N.3     1  UNL1       -0.2724
     18 C         143.4556  141.5354  163.1100 C.3     1  UNL1        0.0725
     19 C         143.4855  140.3052  163.9677 C.3     1  UNL1        0.0227
     20 C         143.1420  140.7098  165.3707 C.3     1  UNL1        0.0350
     21 C         143.3843  139.2295  165.3613 C.3     1  UNL1        0.0101
     22 C         143.1906  138.7192  166.7585 C.3     1  UNL1        0.0269
     23 C         142.8285  139.8841  167.6313 C.ar    1  UNL1       -0.0199
     24 C         142.5223  139.9835  169.0964 C.ar    1  UNL1        0.0303
     25 BR        142.5523  138.7533  169.9541 Br      1  UNL1       -0.0493
     26 C         142.1861  141.3132  169.7037 C.ar    1  UNL1        0.0064
     27 C         142.1561  142.5434  168.8461 C.ar    1  UNL1        0.0002
     28 C         142.4623  142.4440  167.3811 C.ar    1  UNL1       -0.0045
     29 C         142.7985  141.1143  166.7737 C.ar    1  UNL1       -0.0249
     30 C         142.8998  142.1900  165.3801 C.3     1  UNL1        0.0761
@<TRIPOS>BOND
     1    10    11    1
     2    11    12   ar
     3    12    13   ar
     4    13    14   ar
     5    14    15   ar
     6    15     4    1
     7     4     5   ar
     8     5     6   ar
     9     6     7   ar
    10     7     3    1
    11     3     2    1
    12     2     1    1
    13     1    16    1
    14    16    17    1
    15    17    18    1
    16    18    19    1
    17    19    20    1
    18    20    21    1
    19    21    22    1
    20    22    23    1
    21    23    24   ar
    22    24    25    1
    23    24    26   ar
    24    26    27   ar
    25    27    28   ar
    26    28    29   ar
    27    20    30    1
    28     7     8   ar
    29     8     9    1
    30    15    11   ar
    31     8     4   ar
    32    30    17    1
    33    29    20    1
    34    29    23   ar
@<TRIPOS>MOLECULE
*****
 30 34 0 0 0
SMALL
GASTEIGER

@<TRIPOS>ATOM
      1 C         137.7376  138.7653  161.7855 C.3     1  UNL1        0.0294
      2 C         138.9850  137.9895  161.4817 C.3     1  UNL1        0.0666
      3 S         140.1804  138.6876  160.9042 S.3     1  UNL1       -0.0756
      4 C         142.3430  141.3783  162.6788 C.ar    1  UNL1        0.2029
      5 N         142.4984  140.2172  163.6157 N.ar    1  UNL1       -0.1250
      6 N         141.7072  139.0680  163.0650 N.ar    1  UNL1       -0.1220
      7 C         141.0628  139.5187  161.7877 C.ar    1  UNL1        0.1933
      8 N         141.4557  140.9465  161.5489 N.ar    1  UNL1       -0.2860
      9 C         141.0352  141.7939  160.3848 C.3     1  UNL1        0.1341
     10 C         144.7522  142.6154  160.8581 C.3     1  UNL1        0.0556
     11 C         144.0729  143.3017  162.0059 C.ar    1  UNL1        0.1001
     12 N         144.3817  144.6772  162.5185 N.ar    1  UNL1       -0.2085
     13 C         143.4652  144.9586  163.6721 C.ar    1  UNL1        0.2849
     14 O         142.5900  143.7571  163.8726 O.2     1  UNL1       -0.4283
     15 C         142.9655  142.7331  162.8428 C.ar    1  UNL1        0.1964
     16 C         137.5807  140.1651  161.2700 C.3     1  UNL1        0.0730
     17 N         137.9874  141.3290  162.1245 N.3     1  UNL1       -0.2724
     18 C         137.8951  142.7770  161.7439 C.3     1  UNL1        0.0725
     19 C         138.4085  143.5920  162.8937 C.3     1  UNL1        0.0227
     20 C         138.8181  142.6478  163.9849 C.3     1  UNL1        0.0350
     21 C         139.0783  144.0465  164.4603 C.3     1  UNL1        0.0101
     22 C         139.6488  143.9666  165.8453 C.3     1  UNL1        0.0269
     23 C         139.7411  142.5187  166.2258 C.ar    1  UNL1       -0.0199
     24 C         140.2263  141.8370  167.4708 C.ar    1  UNL1        0.0303
     25 BR        140.7397  142.6521  168.6206 Br      1  UNL1       -0.0493
     26 C         140.1982  140.3403  167.5659 C.ar    1  UNL1        0.0064
     27 C         139.6848  139.5252  166.4162 C.ar    1  UNL1        0.0002
     28 C         139.1996  140.2069  165.1712 C.ar    1  UNL1       -0.0045
     29 C         139.2277  141.7036  165.0761 C.ar    1  UNL1       -0.0249
     30 C         138.5579  141.2491  163.5095 C.3     1  UNL1        0.0761
@<TRIPOS>BOND
     1    10    11    1
     2    11    12   ar
     3    12    13   ar
     4    13    14   ar
     5    14    15   ar
     6    15     4    1
     7     4     5   ar
     8     5     6   ar
     9     6     7   ar
    10     7     3    1
    11     3     2    1
    12     2     1    1
    13     1    16    1
    14    16    17    1
    15    17    18    1
    16    18    19    1
    17    19    20    1
    18    20    21    1
    19    21    22    1
    20    22    23    1
    21    23    24   ar
    22    24    25    1
    23    24    26   ar
    24    26    27   ar
    25    27    28   ar
    26    28    29   ar
    27    20    30    1
    28     7     8   ar
    29     8     9    1
    30    15    11   ar
    31     8     4   ar
    32    30    17    1
    33    29    20    1
    34    29    23   ar
@<TRIPOS>MOLECULE
*****
 30 34 0 0 0
SMALL
GASTEIGER

@<TRIPOS>ATOM
      1 C         141.7575  137.9203  160.7955 C.3     1  UNL1        0.0294
      2 C         141.4327  138.6229  159.5106 C.3     1  UNL1        0.0666
      3 S         140.0093  138.9607  159.1796 S.3     1  UNL1       -0.0756
      4 C         138.6196  141.7874  161.4478 C.ar    1  UNL1        0.2029
      5 N         137.4556  140.8417  161.4170 N.ar    1  UNL1       -0.1250
      6 N         137.8345  139.6678  160.5636 N.ar    1  UNL1       -0.1220
      7 C         139.2327  139.8879  160.0670 C.ar    1  UNL1        0.1933
      8 N         139.7179  141.1978  160.6134 N.ar    1  UNL1       -0.2860
      9 C         141.0649  141.8107  160.3684 C.3     1  UNL1        0.1341
     10 C         138.0933  142.2142  164.6401 C.3     1  UNL1        0.0556
     11 C         138.4336  143.2895  163.6510 C.ar    1  UNL1        0.1001
     12 N         138.5917  144.7497  163.9557 N.ar    1  UNL1       -0.2085
     13 C         138.9313  145.4559  162.6767 C.ar    1  UNL1        0.2849
     14 O         138.9831  144.4322  161.5815 O.2     1  UNL1       -0.4283
     15 C         138.6755  143.0933  162.1837 C.ar    1  UNL1        0.1964
     16 C         141.8474  138.6990  162.0744 C.3     1  UNL1        0.0730
     17 N         140.7898  138.5389  163.1259 N.3     1  UNL1       -0.2724
     18 C         139.5474  137.7067  163.0074 C.3     1  UNL1        0.0725
     19 C         138.7787  137.8364  164.2889 C.3     1  UNL1        0.0227
     20 C         139.5460  138.7486  165.1995 C.3     1  UNL1        0.0350
     21 C         138.3031  138.3144  165.9182 C.3     1  UNL1        0.0101
     22 C         138.3022  138.9584  167.2730 C.3     1  UNL1        0.0269
     23 C         139.5445  139.7904  167.3915 C.ar    1  UNL1       -0.0199
     24 C         140.0752  140.6495  168.5008 C.ar    1  UNL1        0.0303
     25 BR        139.3065  140.7791  169.7823 Br      1  UNL1       -0.0493
     26 C         141.3745  141.3788  168.3286 C.ar    1  UNL1        0.0064
     27 C         142.1432  141.2493  167.0471 C.ar    1  UNL1        0.0002
     28 C         141.6126  140.3902  165.9378 C.ar    1  UNL1       -0.0045
     29 C         140.3133  139.6609  166.1100 C.ar    1  UNL1       -0.0249
     30 C         140.7889  139.1828  164.4807 C.3     1  UNL1        0.0761
@<TRIPOS>BOND
     1    10    11    1
     2    11    12   ar
     3    12    13   ar
     4    13    14   ar
     5    14    15   ar
     6    15     4    1
     7     4     5   ar
     8     5     6   ar
     9     6     7   ar
    10     7     3    1
    11     3     2    1
    12     2     1    1
    13     1    16    1
    14    16    17    1
    15    17    18    1
    16    18    19    1
    17    19    20    1
    18    20    21    1
    19    21    22    1
    20    22    23    1
    21    23    24   ar
    22    24    25    1
    23    24    26   ar
    24    26    27   ar
    25    27    28   ar
    26    28    29   ar
    27    20    30    1
    28     7     8   ar
    29     8     9    1
    30    15    11   ar
    31     8     4   ar
    32    30    17    1
    33    29    20    1
    34    29    23   ar
@<TRIPOS>MOLECULE
*****
 30 34 0 0 0
SMALL
GASTEIGER

@<TRIPOS>ATOM
      1 C         143.9414  140.4163  160.9328 C.3     1  UNL1        0.0294
      2 C         144.7518  140.8226  162.1279 C.3     1  UNL1        0.0666
      3 S         144.6154  140.0694  163.4179 S.3     1  UNL1       -0.0756
      4 C         142.8323  141.0597  166.7203 C.ar    1  UNL1        0.2029
      5 N         143.1446  142.4087  166.1436 N.ar    1  UNL1       -0.1250
      6 N         143.8506  142.2020  164.8363 N.ar    1  UNL1       -0.1220
      7 C         143.9745  140.7251  164.6050 C.ar    1  UNL1        0.1933
      8 N         143.3452  140.0191  165.7693 N.ar    1  UNL1       -0.2860
      9 C         143.2462  138.5334  165.9508 C.3     1  UNL1        0.1341
     10 C         143.6952  142.2375  169.6387 C.3     1  UNL1        0.0556
     11 C         142.5269  141.3386  169.3611 C.ar    1  UNL1        0.1001
     12 N         141.5502  140.8233  170.3761 N.ar    1  UNL1       -0.2085
     13 C         140.5498  139.9634  169.6620 C.ar    1  UNL1        0.2849
     14 O         140.9084  139.9473  168.2056 O.2     1  UNL1       -0.4283
     15 C         142.1303  140.7972  168.0196 C.ar    1  UNL1        0.1964
     16 C         142.6203  141.0736  160.6637 C.3     1  UNL1        0.0730
     17 N         141.7511  141.5063  161.8071 N.3     1  UNL1       -0.2724
     18 C         141.4687  142.9224  162.2132 C.3     1  UNL1        0.0725
     19 C         140.5548  142.8901  163.4022 C.3     1  UNL1        0.0227
     20 C         140.2724  141.4541  163.7309 C.3     1  UNL1        0.0350
     21 C         139.5331  142.3094  164.7168 C.3     1  UNL1        0.0101
     22 C         138.7937  141.4019  165.6548 C.3     1  UNL1        0.0269
     23 C         139.0761  139.9859  165.2487 C.ar    1  UNL1       -0.0199
     24 C         138.6191  138.6712  165.8079 C.ar    1  UNL1        0.0303
     25 BR        137.7053  138.6389  166.9969 Br      1  UNL1       -0.0493
     26 C         139.0761  137.3888  165.1782 C.ar    1  UNL1        0.0064
     27 C         139.9899  137.4210  163.9892 C.ar    1  UNL1        0.0002
     28 C         140.4469  138.7357  163.4299 C.ar    1  UNL1       -0.0045
     29 C         139.9900  140.0181  164.0597 C.ar    1  UNL1       -0.0249
     30 C         141.0118  140.5989  162.7451 C.3     1  UNL1        0.0761
@<TRIPOS>BOND
     1    10    11    1
     2    11    12   ar
     3    12    13   ar
     4    13    14   ar
     5    14    15   ar
     6    15     4    1
     7     4     5   ar
     8     5     6   ar
     9     6     7   ar
    10     7     3    1
    11     3     2    1
    12     2     1    1
    13     1    16    1
    14    16    17    1
    15    17    18    1
    16    18    19    1
    17    19    20    1
    18    20    21    1
    19    21    22    1
    20    22    23    1
    21    23    24   ar
    22    24    25    1
    23    24    26   ar
    24    26    27   ar
    25    27    28   ar
    26    28    29   ar
    27    20    30    1
    28     7     8   ar
    29     8     9    1
    30    15    11   ar
    31     8     4   ar
    32    30    17    1
    33    29    20    1
    34    29    23   ar
@<TRIPOS>MOLECULE
*****
 30 34 0 0 0
SMALL
GASTEIGER

@<TRIPOS>ATOM
      1 C         145.5175  141.4672  163.6228 C.3     1  UNL1        0.0294
      2 C         145.1996  141.8699  162.2132 C.3     1  UNL1        0.0666
      3 S         144.5818  143.2085  161.9368 S.3     1  UNL1       -0.0756
      4 C         140.8036  143.6565  162.7053 C.ar    1  UNL1        0.2029
      5 N         140.7834  143.5388  161.2100 N.ar    1  UNL1       -0.1250
      6 N         142.1962  143.3566  160.7402 N.ar    1  UNL1       -0.1220
      7 C         143.0896  143.3618  161.9451 C.ar    1  UNL1        0.1933
      8 N         142.2290  143.5471  163.1596 N.ar    1  UNL1       -0.2860
      9 C         142.7094  143.6117  164.5791 C.3     1  UNL1        0.1341
     10 C         138.0866  141.8490  162.6816 C.3     1  UNL1        0.0556
     11 C         138.3595  143.0189  163.5799 C.ar    1  UNL1        0.1001
     12 N         137.4315  143.5634  164.6250 N.ar    1  UNL1       -0.2085
     13 C         138.1067  144.7307  165.2818 C.ar    1  UNL1        0.2849
     14 O         139.4521  144.9077  164.6426 O.2     1  UNL1       -0.4283
     15 C         139.6083  143.8497  163.5908 C.ar    1  UNL1        0.1964
     16 C         144.9391  140.2052  164.1909 C.3     1  UNL1        0.0730
     17 N         143.4624  140.0990  164.4317 N.3     1  UNL1       -0.2724
     18 C         142.4077  139.9254  163.3793 C.3     1  UNL1        0.0725
     19 C         141.0746  139.8669  164.0644 C.3     1  UNL1        0.0227
     20 C         141.3053  140.0043  165.5401 C.3     1  UNL1        0.0350
     21 C         139.8295  139.8609  165.3131 C.3     1  UNL1        0.0101
     22 C         139.1483  139.9097  166.6486 C.3     1  UNL1        0.0269
     23 C         140.2030  140.0833  167.7009 C.ar    1  UNL1       -0.0199
     24 C         140.1217  140.1957  169.1945 C.ar    1  UNL1        0.0303
     25 BR        138.7886  140.1372  169.8796 Br      1  UNL1       -0.0493
     26 C         141.3735  140.3666  170.0030 C.ar    1  UNL1        0.0064
     27 C         142.7066  140.4251  169.3180 C.ar    1  UNL1        0.0002
     28 C         142.7879  140.3127  167.8244 C.ar    1  UNL1       -0.0045
     29 C         141.5361  140.1418  167.0159 C.ar    1  UNL1       -0.0249
     30 C         142.7811  140.1478  165.7671 C.3     1  UNL1        0.0761
@<TRIPOS>BOND
     1    10    11    1
     2    11    12   ar
     3    12    13   ar
     4    13    14   ar
     5    14    15   ar
     6    15     4    1
     7     4     5   ar
     8     5     6   ar
     9     6     7   ar
    10     7     3    1
    11     3     2    1
    12     2     1    1
    13     1    16    1
    14    16    17    1
    15    17    18    1
    16    18    19    1
    17    19    20    1
    18    20    21    1
    19    21    22    1
    20    22    23    1
    21    23    24   ar
    22    24    25    1
    23    24    26   ar
    24    26    27   ar
    25    27    28   ar
    26    28    29   ar
    27    20    30    1
    28     7     8   ar
    29     8     9    1
    30    15    11   ar
    31     8     4   ar
    32    30    17    1
    33    29    20    1
    34    29    23   ar
