@<TRIPOS>MOLECULE
*****
 44 49 0 0 0
SMALL
GASTEIGER

@<TRIPOS>ATOM
      1 C         139.4665  143.5686  161.9583 C.3     1  UNL1        0.1234
      2 C         138.3935  143.9389  162.9389 C.3     1  UNL1        0.0313
      3 C         137.8071  142.8925  163.8395 C.3     1  UNL1        0.0194
      4 C         138.2936  141.4758  163.7596 C.3     1  UNL1        0.0700
      5 C         139.3666  141.1056  162.7790 C.3     1  UNL1        0.0194
      6 C         139.9531  142.1520  161.8784 C.3     1  UNL1        0.0313
      7 C         138.6452  142.0144  163.2456 C.3     1  UNL1        0.1563
      8 O         139.1755  142.9606  162.4311 O.3     1  UNL1       -0.3546
      9 C         140.0530  144.6149  161.0576 C.3     1  UNL1        0.2024
     10 O         139.3665  143.9869  159.8811 O.3     1  UNL1       -0.3768
     11 H         139.5761  144.4895  159.0783 H       1  UNL1        0.2107
     12 C         140.7395  145.2429  162.2342 C.3     1  UNL1        0.4219
     13 F         141.4260  145.8709  163.4108 F       1  UNL1       -0.1675
     14 F         141.7401  144.2113  162.6638 F       1  UNL1       -0.1675
     15 F         139.8794  146.4628  162.0850 F       1  UNL1       -0.1675
     16 C         140.6395  145.6613  160.1570 C.3     1  UNL1        0.0680
     17 C         143.8760  142.5663  159.7143 C.ar    1  UNL1        0.2250
     18 C         144.3715  142.1891  158.3497 C.ar    1  UNL1        0.0593
     19 C         143.7881  142.8436  157.1326 C.ar    1  UNL1        0.0254
     20 C         142.7093  143.8753  157.2801 C.ar    1  UNL1        0.0990
     21 N         142.1260  144.5298  156.0631 N.ar    1  UNL1       -0.2400
     22 C         141.0471  145.5615  156.2106 C.ar    1  UNL1        0.1281
     23 C         140.5516  145.9387  157.5752 C.ar    1  UNL1        0.1567
     24 F         139.4728  146.9704  157.7228 F       1  UNL1       -0.2028
     25 C         141.1350  145.2842  158.7923 C.ar    1  UNL1        0.0287
     26 C         142.2138  144.2525  158.6448 C.ar    1  UNL1        0.1002
     27 N         142.7972  143.5980  159.8619 N.ar    1  UNL1       -0.2104
     28 C         144.7382  142.7261  162.1600 C.3     1  UNL1        0.2542
     29 O         144.4593  141.9118  160.9314 O.3     1  UNL1       -0.4561
     30 N         137.7072  140.4295  164.6602 N.3     1  UNL1       -0.2926
     31 H         136.9390  139.9966  164.1475 H       1  UNL1        0.1236
     32 C         138.5682  139.3138  165.1738 C.3     1  UNL1        0.1152
     33 C         139.6211  139.5926  166.2051 C.ar    1  UNL1        0.0765
     34 C         141.0507  139.2271  165.9353 C.ar    1  UNL1        0.0193
     35 C         142.1036  139.5060  166.9666 C.ar    1  UNL1        0.0411
     36 C         141.7270  140.1504  168.2676 C.ar    1  UNL1        0.1708
     37 C         140.2975  140.5160  168.5375 C.ar    1  UNL1        0.1682
     38 N         139.2445  140.2371  167.5062 N.ar    1  UNL1       -0.2304
     39 N         139.9209  141.1604  169.8386 N.am    1  UNL1       -0.2639
     40 C         140.9738  141.4393  170.8698 C.2     1  UNL1        0.2718
     41 O         140.5972  142.0838  172.1709 O.2     1  UNL1       -0.2707
     42 C         142.4034  141.0738  170.6001 C.3     1  UNL1        0.2898
     43 O         142.7800  140.4293  169.2990 O.3     1  UNL1       -0.4628
     44 H         138.9826  141.4004  170.0156 H       1  UNL1        0.1565
@<TRIPOS>BOND
     1    28    29    1
     2    29    17    1
     3    17    18   ar
     4    18    19   ar
     5    19    20   ar
     6    20    21   ar
     7    21    22   ar
     8    22    23   ar
     9    23    24    1
    10    23    25   ar
    11    25    16    1
    12    16     9    1
    13     9    10    1
    14     9    12    1
    15    12    13    1
    16    12    14    1
    17    12    15    1
    18     9     1    1
    19     1     2    1
    20     2     3    1
    21     3     4    1
    22     4    30    1
    23    30    32    1
    24    32    33    1
    25    33    34   ar
    26    34    35   ar
    27    35    36   ar
    28    36    37   ar
    29    37    38   ar
    30    37    39    1
    31    39    40   am
    32    40    41    2
    33    40    42    1
    34    42    43    1
    35     4     5    1
    36     5     6    1
    37     4     7    1
    38     7     8    1
    39    25    26   ar
    40    26    27   ar
    41    27    17   ar
    42    26    20   ar
    43     6     1    1
    44     8     1    1
    45    38    33   ar
    46    43    36    1
    47    10    11    1
    48    30    31    1
    49    39    44    1
@<TRIPOS>MOLECULE
*****
 44 49 0 0 0
SMALL
GASTEIGER

@<TRIPOS>ATOM
      1 C         139.4665  139.5793  160.5151 C.3     1  UNL1        0.1234
      2 C         140.5267  140.6065  160.2490 C.3     1  UNL1        0.0313
      3 C         141.3126  140.5599  158.9723 C.3     1  UNL1        0.0194
      4 C         141.0384  139.4859  157.9615 C.3     1  UNL1        0.0700
      5 C         139.9782  138.4587  158.2276 C.3     1  UNL1        0.0194
      6 C         139.1923  138.5054  159.5044 C.3     1  UNL1        0.0313
      7 C         140.5819  139.4707  158.6466 C.3     1  UNL1        0.1563
      8 O         139.8712  139.5129  159.8010 O.3     1  UNL1       -0.3546
      9 C         138.6806  139.6259  161.7918 C.3     1  UNL1        0.2024
     10 O         137.9329  140.8245  161.2878 O.3     1  UNL1       -0.3768
     11 H         137.2925  141.1114  161.9575 H       1  UNL1        0.2107
     12 C         139.4283  138.4272  162.2959 C.3     1  UNL1        0.4219
     13 F         140.1761  137.2285  162.7999 F       1  UNL1       -0.1675
     14 F         140.8261  138.9312  162.5011 F       1  UNL1       -0.1675
     15 F         138.1742  137.6088  162.2100 F       1  UNL1       -0.1675
     16 C         137.8947  139.6725  163.0686 C.3     1  UNL1        0.0680
     17 C         138.8859  144.0379  163.5271 C.ar    1  UNL1        0.2250
     18 C         139.5316  144.5320  164.7876 C.ar    1  UNL1        0.0593
     19 C         139.8469  143.5710  165.8953 C.ar    1  UNL1        0.0254
     20 C         139.5165  142.1158  165.7425 C.ar    1  UNL1        0.0990
     21 N         139.8318  141.1548  166.8502 N.ar    1  UNL1       -0.2400
     22 C         139.5014  139.6996  166.6974 C.ar    1  UNL1        0.1281
     23 C         138.8557  139.2055  165.4369 C.ar    1  UNL1        0.1567
     24 F         138.5252  137.7504  165.2840 F       1  UNL1       -0.2028
     25 C         138.5404  140.1666  164.3291 C.ar    1  UNL1        0.0287
     26 C         138.8708  141.6217  164.4820 C.ar    1  UNL1        0.1002
     27 N         138.5555  142.5828  163.3743 N.ar    1  UNL1       -0.2104
     28 C         139.6217  145.9510  161.9306 C.3     1  UNL1        0.2542
     29 O         138.5706  144.9989  162.4194 O.3     1  UNL1       -0.4561
     30 N         141.8243  139.4393  156.6848 N.3     1  UNL1       -0.2926
     31 H         142.1837  140.3805  156.5257 H       1  UNL1        0.1236
     32 C         142.9892  138.5033  156.5549 C.3     1  UNL1        0.1152
     33 C         142.7536  137.0311  156.3902 C.ar    1  UNL1        0.0765
     34 C         141.5876  136.5439  155.5821 C.ar    1  UNL1        0.0193
     35 C         141.3520  135.0717  155.4174 C.ar    1  UNL1        0.0411
     36 C         142.2825  134.0867  156.0608 C.ar    1  UNL1        0.1708
     37 C         143.4485  134.5738  156.8689 C.ar    1  UNL1        0.1682
     38 N         143.6841  136.0461  157.0336 N.ar    1  UNL1       -0.2304
     39 N         144.3789  133.5888  157.5123 N.am    1  UNL1       -0.2639
     40 C         144.1434  132.1166  157.3477 C.2     1  UNL1        0.2718
     41 O         145.0738  131.1316  157.9911 O.2     1  UNL1       -0.2707
     42 C         142.9773  131.6294  156.5395 C.3     1  UNL1        0.2898
     43 O         142.0469  132.6144  155.8961 O.3     1  UNL1       -0.4628
     44 H         145.1442  133.9086  158.0427 H       1  UNL1        0.1565
@<TRIPOS>BOND
     1    28    29    1
     2    29    17    1
     3    17    18   ar
     4    18    19   ar
     5    19    20   ar
     6    20    21   ar
     7    21    22   ar
     8    22    23   ar
     9    23    24    1
    10    23    25   ar
    11    25    16    1
    12    16     9    1
    13     9    10    1
    14     9    12    1
    15    12    13    1
    16    12    14    1
    17    12    15    1
    18     9     1    1
    19     1     2    1
    20     2     3    1
    21     3     4    1
    22     4    30    1
    23    30    32    1
    24    32    33    1
    25    33    34   ar
    26    34    35   ar
    27    35    36   ar
    28    36    37   ar
    29    37    38   ar
    30    37    39    1
    31    39    40   am
    32    40    41    2
    33    40    42    1
    34    42    43    1
    35     4     5    1
    36     5     6    1
    37     4     7    1
    38     7     8    1
    39    25    26   ar
    40    26    27   ar
    41    27    17   ar
    42    26    20   ar
    43     6     1    1
    44     8     1    1
    45    38    33   ar
    46    43    36    1
    47    10    11    1
    48    30    31    1
    49    39    44    1
@<TRIPOS>MOLECULE
*****
 44 49 0 0 0
SMALL
GASTEIGER

@<TRIPOS>ATOM
      1 C         139.4298  143.4952  161.7971 C.3     1  UNL1        0.1234
      2 C         138.4282  143.9480  162.8177 C.3     1  UNL1        0.0313
      3 C         137.8284  142.9573  163.7709 C.3     1  UNL1        0.0194
      4 C         138.2302  141.5137  163.7036 C.3     1  UNL1        0.0700
      5 C         139.2318  141.0608  162.6830 C.3     1  UNL1        0.0194
      6 C         139.8316  142.0516  161.7297 C.3     1  UNL1        0.0313
      7 C         138.5860  142.0197  163.1602 C.3     1  UNL1        0.1563
      8 O         139.1284  142.9155  162.2982 O.3     1  UNL1       -0.3546
      9 C         140.0296  144.4859  160.8439 C.3     1  UNL1        0.2024
     10 O         139.3095  143.8263  159.7053 O.3     1  UNL1       -0.3768
     11 H         139.5200  144.2881  158.8787 H       1  UNL1        0.2107
     12 C         140.7496  145.1455  161.9824 C.3     1  UNL1        0.4219
     13 F         141.4698  145.8050  163.1211 F       1  UNL1       -0.1675
     14 F         141.6956  144.0901  162.4738 F       1  UNL1       -0.1675
     15 F         139.9543  146.3977  161.7601 F       1  UNL1       -0.1675
     16 C         140.6294  145.4767  159.8906 C.3     1  UNL1        0.0680
     17 C         139.5075  147.1559  155.8693 C.ar    1  UNL1        0.2250
     18 C         140.2106  146.6771  154.6338 C.ar    1  UNL1        0.0593
     19 C         141.2878  145.6385  154.7389 C.ar    1  UNL1        0.0254
     20 C         141.6618  145.0787  156.0793 C.ar    1  UNL1        0.0990
     21 N         142.7389  144.0400  156.1843 N.ar    1  UNL1       -0.2400
     22 C         143.1129  143.4802  157.5248 C.ar    1  UNL1        0.1281
     23 C         142.4098  143.9591  158.7602 C.ar    1  UNL1        0.1567
     24 F         142.7837  143.3994  160.1007 F       1  UNL1       -0.2028
     25 C         141.3326  144.9978  158.6552 C.ar    1  UNL1        0.0287
     26 C         140.9586  145.5575  157.3148 C.ar    1  UNL1        0.1002
     27 N         139.8815  146.5962  157.2097 N.ar    1  UNL1       -0.2104
     28 C         138.7948  149.6346  155.5557 C.3     1  UNL1        0.2542
     29 O         138.4304  148.1945  155.7643 O.3     1  UNL1       -0.4561
     30 N         137.6304  140.5230  164.6568 N.3     1  UNL1       -0.2926
     31 H         136.8285  140.1070  164.1832 H       1  UNL1        0.1236
     32 C         138.4605  139.3886  165.1803 C.3     1  UNL1        0.1152
     33 C         139.5419  139.6522  166.1857 C.ar    1  UNL1        0.0765
     34 C         140.9646  139.2991  165.8671 C.ar    1  UNL1        0.0193
     35 C         142.0460  139.5627  166.8725 C.ar    1  UNL1        0.0411
     36 C         141.7050  140.1795  168.1966 C.ar    1  UNL1        0.1708
     37 C         140.2824  140.5327  168.5153 C.ar    1  UNL1        0.1682
     38 N         139.2009  140.2690  167.5098 N.ar    1  UNL1       -0.2304
     39 N         139.9414  141.1495  169.8394 N.am    1  UNL1       -0.2639
     40 C         141.0228  141.4131  170.8448 C.2     1  UNL1        0.2718
     41 O         140.6817  142.0299  172.1689 O.2     1  UNL1       -0.2707
     42 C         142.4455  141.0599  170.5261 C.3     1  UNL1        0.2898
     43 O         142.7865  140.4431  169.2020 O.3     1  UNL1       -0.4628
     44 H         139.0077  141.3812  170.0485 H       1  UNL1        0.1565
@<TRIPOS>BOND
     1    28    29    1
     2    29    17    1
     3    17    18   ar
     4    18    19   ar
     5    19    20   ar
     6    20    21   ar
     7    21    22   ar
     8    22    23   ar
     9    23    24    1
    10    23    25   ar
    11    25    16    1
    12    16     9    1
    13     9    10    1
    14     9    12    1
    15    12    13    1
    16    12    14    1
    17    12    15    1
    18     9     1    1
    19     1     2    1
    20     2     3    1
    21     3     4    1
    22     4    30    1
    23    30    32    1
    24    32    33    1
    25    33    34   ar
    26    34    35   ar
    27    35    36   ar
    28    36    37   ar
    29    37    38   ar
    30    37    39    1
    31    39    40   am
    32    40    41    2
    33    40    42    1
    34    42    43    1
    35     4     5    1
    36     5     6    1
    37     4     7    1
    38     7     8    1
    39    25    26   ar
    40    26    27   ar
    41    27    17   ar
    42    26    20   ar
    43     6     1    1
    44     8     1    1
    45    38    33   ar
    46    43    36    1
    47    10    11    1
    48    30    31    1
    49    39    44    1
@<TRIPOS>MOLECULE
*****
 44 49 0 0 0
SMALL
GASTEIGER

@<TRIPOS>ATOM
      1 C         140.5722  138.3909  161.3014 C.3     1  UNL1        0.1234
      2 C         141.7961  139.1898  160.9641 C.3     1  UNL1        0.0313
      3 C         142.0484  139.6133  159.5474 C.3     1  UNL1        0.0194
      4 C         141.0767  139.2378  158.4680 C.3     1  UNL1        0.0700
      5 C         139.8528  138.4389  158.8054 C.3     1  UNL1        0.0194
      6 C         139.6006  138.0155  160.2221 C.3     1  UNL1        0.0313
      7 C         140.8959  138.9830  159.2298 C.3     1  UNL1        0.1563
      8 O         140.6677  138.6001  160.5108 O.3     1  UNL1       -0.3546
      9 C         140.3199  137.9675  162.7181 C.3     1  UNL1        0.2024
     10 O         141.5690  137.1373  162.6924 O.3     1  UNL1       -0.3768
     11 H         141.6844  136.7002  163.5506 H       1  UNL1        0.2107
     12 C         139.0709  138.7976  162.7438 C.3     1  UNL1        0.4219
     13 F         137.8218  139.6278  162.7695 F       1  UNL1       -0.1675
     14 F         139.5717  140.2095  162.6679 F       1  UNL1       -0.1675
     15 F         138.2431  137.5495  162.8284 F       1  UNL1       -0.1675
     16 C         140.0676  137.5440  164.1349 C.3     1  UNL1        0.0680
     17 C         143.5728  140.3363  164.5432 C.ar    1  UNL1        0.2250
     18 C         143.5971  141.3533  165.6456 C.ar    1  UNL1        0.0593
     19 C         142.4530  141.4395  166.6118 C.ar    1  UNL1        0.0254
     20 C         141.2846  140.5087  166.4757 C.ar    1  UNL1        0.0990
     21 N         140.1405  140.5950  167.4419 N.ar    1  UNL1       -0.2400
     22 C         138.9720  139.6642  167.3058 C.ar    1  UNL1        0.1281
     23 C         138.9477  138.6472  166.2034 C.ar    1  UNL1        0.1567
     24 F         137.7793  137.7165  166.0673 F       1  UNL1       -0.2028
     25 C         140.0919  138.5610  165.2372 C.ar    1  UNL1        0.0287
     26 C         141.2603  139.4918  165.3733 C.ar    1  UNL1        0.1002
     27 N         142.4044  139.4056  164.4071 N.ar    1  UNL1       -0.2104
     28 C         145.3817  141.5027  163.0881 C.3     1  UNL1        0.2542
     29 O         144.7169  140.2501  163.5770 O.3     1  UNL1       -0.4561
     30 N         141.3290  139.6613  157.0513 N.3     1  UNL1       -0.2926
     31 H         141.6535  140.6276  157.0862 H       1  UNL1        0.1236
     32 C         142.3106  138.9051  156.2060 C.3     1  UNL1        0.1152
     33 C         142.2253  137.4104  156.1131 C.ar    1  UNL1        0.0765
     34 C         141.1166  136.7696  155.3319 C.ar    1  UNL1        0.0193
     35 C         141.0312  135.2749  155.2390 C.ar    1  UNL1        0.0411
     36 C         142.0546  134.4210  155.9272 C.ar    1  UNL1        0.1708
     37 C         143.1633  135.0618  156.7083 C.ar    1  UNL1        0.1682
     38 N         143.2487  136.5565  156.8013 N.ar    1  UNL1       -0.2304
     39 N         144.1866  134.2079  157.3965 N.am    1  UNL1       -0.2639
     40 C         144.1013  132.7132  157.3036 C.2     1  UNL1        0.2718
     41 O         145.1246  131.8593  157.9918 O.2     1  UNL1       -0.2707
     42 C         142.9925  132.0724  156.5225 C.3     1  UNL1        0.2898
     43 O         141.9692  132.9263  155.8343 O.3     1  UNL1       -0.4628
     44 H         144.9143  134.6285  157.9092 H       1  UNL1        0.1565
@<TRIPOS>BOND
     1    28    29    1
     2    29    17    1
     3    17    18   ar
     4    18    19   ar
     5    19    20   ar
     6    20    21   ar
     7    21    22   ar
     8    22    23   ar
     9    23    24    1
    10    23    25   ar
    11    25    16    1
    12    16     9    1
    13     9    10    1
    14     9    12    1
    15    12    13    1
    16    12    14    1
    17    12    15    1
    18     9     1    1
    19     1     2    1
    20     2     3    1
    21     3     4    1
    22     4    30    1
    23    30    32    1
    24    32    33    1
    25    33    34   ar
    26    34    35   ar
    27    35    36   ar
    28    36    37   ar
    29    37    38   ar
    30    37    39    1
    31    39    40   am
    32    40    41    2
    33    40    42    1
    34    42    43    1
    35     4     5    1
    36     5     6    1
    37     4     7    1
    38     7     8    1
    39    25    26   ar
    40    26    27   ar
    41    27    17   ar
    42    26    20   ar
    43     6     1    1
    44     8     1    1
    45    38    33   ar
    46    43    36    1
    47    10    11    1
    48    30    31    1
    49    39    44    1
@<TRIPOS>MOLECULE
*****
 44 49 0 0 0
SMALL
GASTEIGER

@<TRIPOS>ATOM
      1 C         141.3449  139.0447  162.3194 C.3     1  UNL1        0.1234
      2 C         141.3977  140.2077  161.3736 C.3     1  UNL1        0.0313
      3 C         142.0645  140.0588  160.0382 C.3     1  UNL1        0.0194
      4 C         142.6785  138.7468  159.6487 C.3     1  UNL1        0.0700
      5 C         142.6257  137.5838  160.5945 C.3     1  UNL1        0.0194
      6 C         141.9589  137.7327  161.9299 C.3     1  UNL1        0.0313
      7 C         142.3241  138.7804  160.3911 C.3     1  UNL1        0.1563
      8 O         141.7212  138.9150  161.5986 O.3     1  UNL1       -0.3546
      9 C         140.6781  139.1936  163.6547 C.3     1  UNL1        0.2024
     10 O         139.3350  139.1585  162.9880 O.3     1  UNL1       -0.3768
     11 H         138.6389  139.2418  163.6584 H       1  UNL1        0.2107
     12 C         142.0213  139.2287  164.3215 C.3     1  UNL1        0.4219
     13 F         143.3645  139.2638  164.9883 F       1  UNL1       -0.1675
     14 F         142.6014  140.5463  163.9003 F       1  UNL1       -0.1675
     15 F         141.7585  137.8794  164.9220 F       1  UNL1       -0.1675
     16 C         140.0114  139.3425  164.9902 C.3     1  UNL1        0.0680
     17 C         138.2941  143.0715  163.1474 C.ar    1  UNL1        0.2250
     18 C         138.3722  144.3762  163.8833 C.ar    1  UNL1        0.0593
     19 C         139.0227  144.4380  165.2335 C.ar    1  UNL1        0.0254
     20 C         139.5952  143.1950  165.8478 C.ar    1  UNL1        0.0990
     21 N         140.2457  143.2567  167.1979 N.ar    1  UNL1       -0.2400
     22 C         140.8181  142.0137  167.8122 C.ar    1  UNL1        0.1281
     23 C         140.7400  140.7090  167.0763 C.ar    1  UNL1        0.1567
     24 F         141.3124  139.4660  167.6906 F       1  UNL1       -0.2028
     25 C         140.0895  140.6473  165.7261 C.ar    1  UNL1        0.0287
     26 C         139.5171  141.8902  165.1119 C.ar    1  UNL1        0.1002
     27 N         138.8665  141.8285  163.7616 N.ar    1  UNL1       -0.2104
     28 C         138.2261  142.1396  160.7231 C.3     1  UNL1        0.2542
     29 O         137.6436  143.0097  161.7972 O.3     1  UNL1       -0.4561
     30 N         143.3453  138.5979  158.3133 N.3     1  UNL1       -0.2926
     31 H         144.1316  137.9619  158.4461 H       1  UNL1        0.1236
     32 C         142.5662  138.0838  157.1391 C.3     1  UNL1        0.1152
     33 C         142.8369  136.7094  156.6031 C.ar    1  UNL1        0.0765
     34 C         142.6395  136.4209  155.1443 C.ar    1  UNL1        0.0193
     35 C         142.9103  135.0464  154.6083 C.ar    1  UNL1        0.0411
     36 C         143.3785  133.9603  155.5309 C.ar    1  UNL1        0.1708
     37 C         143.5759  134.2487  156.9896 C.ar    1  UNL1        0.1682
     38 N         143.3051  135.6233  157.5257 N.ar    1  UNL1       -0.2304
     39 N         144.0441  133.1627  157.9122 N.am    1  UNL1       -0.2639
     40 C         144.3149  131.7882  157.3762 C.2     1  UNL1        0.2718
     41 O         144.7831  130.7021  158.2988 O.2     1  UNL1       -0.2707
     42 C         144.1175  131.4997  155.9174 C.3     1  UNL1        0.2898
     43 O         143.6493  132.5857  154.9948 O.3     1  UNL1       -0.4628
     44 H         144.1737  133.3520  158.8696 H       1  UNL1        0.1565
@<TRIPOS>BOND
     1    28    29    1
     2    29    17    1
     3    17    18   ar
     4    18    19   ar
     5    19    20   ar
     6    20    21   ar
     7    21    22   ar
     8    22    23   ar
     9    23    24    1
    10    23    25   ar
    11    25    16    1
    12    16     9    1
    13     9    10    1
    14     9    12    1
    15    12    13    1
    16    12    14    1
    17    12    15    1
    18     9     1    1
    19     1     2    1
    20     2     3    1
    21     3     4    1
    22     4    30    1
    23    30    32    1
    24    32    33    1
    25    33    34   ar
    26    34    35   ar
    27    35    36   ar
    28    36    37   ar
    29    37    38   ar
    30    37    39    1
    31    39    40   am
    32    40    41    2
    33    40    42    1
    34    42    43    1
    35     4     5    1
    36     5     6    1
    37     4     7    1
    38     7     8    1
    39    25    26   ar
    40    26    27   ar
    41    27    17   ar
    42    26    20   ar
    43     6     1    1
    44     8     1    1
    45    38    33   ar
    46    43    36    1
    47    10    11    1
    48    30    31    1
    49    39    44    1
@<TRIPOS>MOLECULE
*****
 44 49 0 0 0
SMALL
GASTEIGER

@<TRIPOS>ATOM
      1 C         139.5210  143.9725  162.0854 C.3     1  UNL1        0.1234
      2 C         139.6734  142.9674  160.9825 C.3     1  UNL1        0.0313
      3 C         140.0784  143.4159  159.6096 C.3     1  UNL1        0.0194
      4 C         140.3310  144.8696  159.3396 C.3     1  UNL1        0.0700
      5 C         140.1786  145.8748  160.4425 C.3     1  UNL1        0.0194
      6 C         139.7736  145.4262  161.8154 C.3     1  UNL1        0.0313
      7 C         140.1111  144.6716  160.1080 C.3     1  UNL1        0.1563
      8 O         139.7449  144.2661  161.3494 O.3     1  UNL1       -0.3546
      9 C         139.1161  143.5240  163.4583 C.3     1  UNL1        0.2024
     10 O         137.7629  143.1434  162.9347 O.3     1  UNL1       -0.3768
     11 H         137.2243  142.7878  163.6589 H       1  UNL1        0.2107
     12 C         140.4692  143.9047  163.9818 C.3     1  UNL1        0.4219
     13 F         141.8224  144.2853  164.5053 F       1  UNL1       -0.1675
     14 F         141.3977  142.9167  163.3403 F       1  UNL1       -0.1675
     15 F         139.8497  145.0180  164.7736 F       1  UNL1       -0.1675
     16 C         138.7111  143.0755  164.8312 C.3     1  UNL1        0.0680
     17 C         138.2757  139.0786  162.8101 C.ar    1  UNL1        0.2250
     18 C         138.9042  137.8591  163.4165 C.ar    1  UNL1        0.0593
     19 C         139.6779  137.9718  164.6966 C.ar    1  UNL1        0.0254
     20 C         139.8231  139.3042  165.3703 C.ar    1  UNL1        0.0990
     21 N         140.5967  139.4170  166.6504 N.ar    1  UNL1       -0.2400
     22 C         140.7419  140.7493  167.3242 C.ar    1  UNL1        0.1281
     23 C         140.1134  141.9688  166.7178 C.ar    1  UNL1        0.1567
     24 F         140.2585  143.3011  167.3914 F       1  UNL1       -0.2028
     25 C         139.3396  141.8560  165.4376 C.ar    1  UNL1        0.0287
     26 C         139.1945  140.5237  164.7639 C.ar    1  UNL1        0.1002
     27 N         138.4208  140.4109  163.4838 N.ar    1  UNL1       -0.2104
     28 C         138.1042  139.4504  160.2445 C.3     1  UNL1        0.2542
     29 O         137.5020  138.9658  161.5300 O.3     1  UNL1       -0.4561
     30 N         140.7360  145.3182  157.9668 N.3     1  UNL1       -0.2926
     31 H         141.4448  144.6616  157.6397 H       1  UNL1        0.1236
     32 C         139.7088  145.4239  156.8788 C.3     1  UNL1        0.1152
     33 C         139.7686  146.5576  155.8985 C.ar    1  UNL1        0.0765
     34 C         140.4251  146.3614  154.5641 C.ar    1  UNL1        0.0193
     35 C         140.4849  147.4951  153.5838 C.ar    1  UNL1        0.0411
     36 C         139.8883  148.8251  153.9378 C.ar    1  UNL1        0.1708
     37 C         139.2318  149.0213  155.2721 C.ar    1  UNL1        0.1682
     38 N         139.1720  147.8876  156.2525 N.ar    1  UNL1       -0.2304
     39 N         138.6352  150.3512  155.6261 N.am    1  UNL1       -0.2639
     40 C         138.6950  151.4849  154.6458 C.2     1  UNL1        0.2718
     41 O         138.0984  152.8149  154.9998 O.2     1  UNL1       -0.2707
     42 C         139.3515  151.2887  153.3113 C.3     1  UNL1        0.2898
     43 O         139.9482  149.9588  152.9573 O.3     1  UNL1       -0.4628
     44 H         138.2043  150.4800  156.5019 H       1  UNL1        0.1565
@<TRIPOS>BOND
     1    28    29    1
     2    29    17    1
     3    17    18   ar
     4    18    19   ar
     5    19    20   ar
     6    20    21   ar
     7    21    22   ar
     8    22    23   ar
     9    23    24    1
    10    23    25   ar
    11    25    16    1
    12    16     9    1
    13     9    10    1
    14     9    12    1
    15    12    13    1
    16    12    14    1
    17    12    15    1
    18     9     1    1
    19     1     2    1
    20     2     3    1
    21     3     4    1
    22     4    30    1
    23    30    32    1
    24    32    33    1
    25    33    34   ar
    26    34    35   ar
    27    35    36   ar
    28    36    37   ar
    29    37    38   ar
    30    37    39    1
    31    39    40   am
    32    40    41    2
    33    40    42    1
    34    42    43    1
    35     4     5    1
    36     5     6    1
    37     4     7    1
    38     7     8    1
    39    25    26   ar
    40    26    27   ar
    41    27    17   ar
    42    26    20   ar
    43     6     1    1
    44     8     1    1
    45    38    33   ar
    46    43    36    1
    47    10    11    1
    48    30    31    1
    49    39    44    1
@<TRIPOS>MOLECULE
*****
 44 49 0 0 0
SMALL
GASTEIGER

@<TRIPOS>ATOM
      1 C         142.8628  141.5167  162.1161 C.3     1  UNL1        0.1234
      2 C         143.7626  142.1848  161.1191 C.3     1  UNL1        0.0313
      3 C         144.0806  141.5035  159.8212 C.3     1  UNL1        0.0194
      4 C         143.4990  140.1540  159.5203 C.3     1  UNL1        0.0700
      5 C         142.5992  139.4858  160.5173 C.3     1  UNL1        0.0194
      6 C         142.2812  140.1672  161.8153 C.3     1  UNL1        0.0313
      7 C         143.2959  140.4881  160.2449 C.3     1  UNL1        0.1563
      8 O         143.0083  141.1042  161.4185 O.3     1  UNL1       -0.3546
      9 C         142.5448  142.1980  163.4140 C.3     1  UNL1        0.2024
     10 O         141.2169  142.6267  162.8635 O.3     1  UNL1       -0.3768
     11 H         140.7368  143.1345  163.5362 H       1  UNL1        0.2107
     12 C         143.8726  141.7694  163.9644 C.3     1  UNL1        0.4219
     13 F         145.2005  141.3407  164.5149 F       1  UNL1       -0.1675
     14 F         143.7363  140.2844  164.1259 F       1  UNL1       -0.1675
     15 F         144.3443  143.1930  163.9353 F       1  UNL1       -0.1675
     16 C         142.2267  142.8794  164.7120 C.3     1  UNL1        0.0680
     17 C         138.5030  140.3538  164.7820 C.ar    1  UNL1        0.2250
     18 C         138.1731  139.5375  165.9964 C.ar    1  UNL1        0.0593
     19 C         139.0845  139.5630  167.1875 C.ar    1  UNL1        0.0254
     20 C         140.3258  140.4049  167.1642 C.ar    1  UNL1        0.0990
     21 N         141.2372  140.4305  168.3552 N.ar    1  UNL1       -0.2400
     22 C         142.4785  141.2724  168.3319 C.ar    1  UNL1        0.1281
     23 C         142.8083  142.0887  167.1175 C.ar    1  UNL1        0.1567
     24 F         144.0495  142.9305  167.0941 F       1  UNL1       -0.2028
     25 C         141.8969  142.0631  165.9264 C.ar    1  UNL1        0.0287
     26 C         140.6556  141.2212  165.9497 C.ar    1  UNL1        0.1002
     27 N         139.7442  141.1957  164.7586 N.ar    1  UNL1       -0.2104
     28 C         138.1640  140.1891  162.2114 C.3     1  UNL1        0.2542
     29 O         137.5916  140.3283  163.5909 O.3     1  UNL1       -0.4561
     30 N         143.8170  139.4726  158.2224 N.3     1  UNL1       -0.2926
     31 H         144.2055  138.5591  158.4568 H       1  UNL1        0.1236
     32 C         142.7321  139.2360  157.2139 C.3     1  UNL1        0.1152
     33 C         142.4561  137.8463  156.7214 C.ar    1  UNL1        0.0765
     34 C         141.1153  137.5093  156.1393 C.ar    1  UNL1        0.0193
     35 C         140.8393  136.1197  155.6468 C.ar    1  UNL1        0.0411
     36 C         141.9041  135.0669  155.7362 C.ar    1  UNL1        0.1708
     37 C         143.2449  135.4039  156.3182 C.ar    1  UNL1        0.1682
     38 N         143.5209  136.7936  156.8108 N.ar    1  UNL1       -0.2304
     39 N         144.3096  134.3511  156.4077 N.am    1  UNL1       -0.2639
     40 C         144.0337  132.9615  155.9151 C.2     1  UNL1        0.2718
     41 O         145.0984  131.9088  156.0046 O.2     1  UNL1       -0.2707
     42 C         142.6928  132.6245  155.3331 C.3     1  UNL1        0.2898
     43 O         141.6280  133.6772  155.2436 O.3     1  UNL1       -0.4628
     44 H         145.1896  134.5723  156.7897 H       1  UNL1        0.1565
@<TRIPOS>BOND
     1    28    29    1
     2    29    17    1
     3    17    18   ar
     4    18    19   ar
     5    19    20   ar
     6    20    21   ar
     7    21    22   ar
     8    22    23   ar
     9    23    24    1
    10    23    25   ar
    11    25    16    1
    12    16     9    1
    13     9    10    1
    14     9    12    1
    15    12    13    1
    16    12    14    1
    17    12    15    1
    18     9     1    1
    19     1     2    1
    20     2     3    1
    21     3     4    1
    22     4    30    1
    23    30    32    1
    24    32    33    1
    25    33    34   ar
    26    34    35   ar
    27    35    36   ar
    28    36    37   ar
    29    37    38   ar
    30    37    39    1
    31    39    40   am
    32    40    41    2
    33    40    42    1
    34    42    43    1
    35     4     5    1
    36     5     6    1
    37     4     7    1
    38     7     8    1
    39    25    26   ar
    40    26    27   ar
    41    27    17   ar
    42    26    20   ar
    43     6     1    1
    44     8     1    1
    45    38    33   ar
    46    43    36    1
    47    10    11    1
    48    30    31    1
    49    39    44    1
@<TRIPOS>MOLECULE
*****
 44 49 0 0 0
SMALL
GASTEIGER

@<TRIPOS>ATOM
      1 C         141.5356  143.4579  164.6855 C.3     1  UNL1        0.1234
      2 C         140.2055  143.3687  163.9979 C.3     1  UNL1        0.0313
      3 C         139.9204  144.2279  162.8018 C.3     1  UNL1        0.0194
      4 C         140.9655  145.1762  162.2933 C.3     1  UNL1        0.0700
      5 C         142.2956  145.2654  162.9810 C.3     1  UNL1        0.0194
      6 C         142.5807  144.4062  164.1771 C.3     1  UNL1        0.0313
      7 C         141.1678  144.7257  162.9521 C.3     1  UNL1        0.1563
      8 O         141.4256  143.9488  164.0337 O.3     1  UNL1       -0.3546
      9 C         141.8207  142.5988  165.8816 C.3     1  UNL1        0.2024
     10 O         140.5979  143.1396  166.5615 O.3     1  UNL1       -0.3768
     11 H         140.5081  142.7324  167.4373 H       1  UNL1        0.2107
     12 C         143.0434  142.0579  165.2017 C.3     1  UNL1        0.4219
     13 F         144.2662  141.5170  164.5217 F       1  UNL1       -0.1675
     14 F         142.4970  141.2326  164.0746 F       1  UNL1       -0.1675
     15 F         143.9116  142.7737  166.1937 F       1  UNL1       -0.1675
     16 C         142.1058  141.7396  167.0777 C.3     1  UNL1        0.0680
     17 C         139.2697  139.0004  164.9089 C.ar    1  UNL1        0.2250
     18 C         138.1403  138.3498  165.6514 C.ar    1  UNL1        0.0593
     19 C         137.9563  138.6123  167.1167 C.ar    1  UNL1        0.0254
     20 C         138.9016  139.5254  167.8396 C.ar    1  UNL1        0.0990
     21 N         138.7176  139.7878  169.3050 N.ar    1  UNL1       -0.2400
     22 C         139.6629  140.7009  170.0279 C.ar    1  UNL1        0.1281
     23 C         140.7923  141.3515  169.2855 C.ar    1  UNL1        0.1567
     24 F         141.7377  142.2646  170.0084 F       1  UNL1       -0.2028
     25 C         140.9764  141.0890  167.8201 C.ar    1  UNL1        0.0287
     26 C         140.0310  140.1759  167.0972 C.ar    1  UNL1        0.1002
     27 N         140.2151  139.9134  165.6318 N.ar    1  UNL1       -0.2104
     28 C         138.5828  137.7355  162.7460 C.3     1  UNL1        0.2542
     29 O         139.4538  138.7379  163.4436 O.3     1  UNL1       -0.4561
     30 N         140.6805  146.0354  161.0973 N.3     1  UNL1       -0.2926
     31 H         141.4969  146.6315  160.9616 H       1  UNL1        0.1236
     32 C         140.3830  145.4002  159.7714 C.3     1  UNL1        0.1152
     33 C         141.1405  144.1806  159.3372 C.ar    1  UNL1        0.0765
     34 C         140.5362  142.8193  159.5155 C.ar    1  UNL1        0.0193
     35 C         141.2938  141.5997  159.0813 C.ar    1  UNL1        0.0411
     36 C         142.6557  141.7413  158.4687 C.ar    1  UNL1        0.1708
     37 C         143.2600  143.1025  158.2904 C.ar    1  UNL1        0.1682
     38 N         142.5024  144.3222  158.7246 N.ar    1  UNL1       -0.2304
     39 N         144.6219  143.2441  157.6779 N.am    1  UNL1       -0.2639
     40 C         145.3795  142.0244  157.2437 C.2     1  UNL1        0.2718
     41 O         146.7414  142.1660  156.6312 O.2     1  UNL1       -0.2707
     42 C         144.7751  140.6631  157.4220 C.3     1  UNL1        0.2898
     43 O         143.4132  140.5215  158.0345 O.3     1  UNL1       -0.4628
     44 H         145.0185  144.1375  157.5609 H       1  UNL1        0.1565
@<TRIPOS>BOND
     1    28    29    1
     2    29    17    1
     3    17    18   ar
     4    18    19   ar
     5    19    20   ar
     6    20    21   ar
     7    21    22   ar
     8    22    23   ar
     9    23    24    1
    10    23    25   ar
    11    25    16    1
    12    16     9    1
    13     9    10    1
    14     9    12    1
    15    12    13    1
    16    12    14    1
    17    12    15    1
    18     9     1    1
    19     1     2    1
    20     2     3    1
    21     3     4    1
    22     4    30    1
    23    30    32    1
    24    32    33    1
    25    33    34   ar
    26    34    35   ar
    27    35    36   ar
    28    36    37   ar
    29    37    38   ar
    30    37    39    1
    31    39    40   am
    32    40    41    2
    33    40    42    1
    34    42    43    1
    35     4     5    1
    36     5     6    1
    37     4     7    1
    38     7     8    1
    39    25    26   ar
    40    26    27   ar
    41    27    17   ar
    42    26    20   ar
    43     6     1    1
    44     8     1    1
    45    38    33   ar
    46    43    36    1
    47    10    11    1
    48    30    31    1
    49    39    44    1
@<TRIPOS>MOLECULE
*****
 44 49 0 0 0
SMALL
GASTEIGER

@<TRIPOS>ATOM
      1 C         139.6891  143.9363  162.0325 C.3     1  UNL1        0.1234
      2 C         139.7060  145.4047  161.7264 C.3     1  UNL1        0.0313
      3 C         140.2311  145.8899  160.4079 C.3     1  UNL1        0.0194
      4 C         140.7394  144.9068  159.3953 C.3     1  UNL1        0.0700
      5 C         140.7224  143.4385  159.7013 C.3     1  UNL1        0.0194
      6 C         140.1973  142.9533  161.0200 C.3     1  UNL1        0.0313
      7 C         140.4612  144.5934  160.1040 C.3     1  UNL1        0.1563
      8 O         139.9863  144.1546  161.2963 O.3     1  UNL1       -0.3546
      9 C         139.1639  143.4511  163.3511 C.3     1  UNL1        0.2024
     10 O         137.9146  142.9684  162.6759 O.3     1  UNL1       -0.3768
     11 H         137.3251  142.5685  163.3343 H       1  UNL1        0.2107
     12 C         140.4133  143.9338  164.0263 C.3     1  UNL1        0.4219
     13 F         141.6628  144.4165  164.7015 F       1  UNL1       -0.1675
     14 F         141.4762  142.9953  163.5370 F       1  UNL1       -0.1675
     15 F         139.6295  145.0215  164.6991 F       1  UNL1       -0.1675
     16 C         138.6388  142.9658  164.6698 C.3     1  UNL1        0.0680
     17 C         138.2993  138.8727  162.8311 C.ar    1  UNL1        0.2250
     18 C         138.9365  137.6931  163.5038 C.ar    1  UNL1        0.0593
     19 C         139.6867  137.8778  164.7894 C.ar    1  UNL1        0.0254
     20 C         139.7999  139.2423  165.4024 C.ar    1  UNL1        0.0990
     21 N         140.5502  139.4270  166.6880 N.ar    1  UNL1       -0.2400
     22 C         140.6634  140.7914  167.3010 C.ar    1  UNL1        0.1281
     23 C         140.0263  141.9710  166.6282 C.ar    1  UNL1        0.1567
     24 F         140.1394  143.3354  167.2411 F       1  UNL1       -0.2028
     25 C         139.2760  141.7862  165.3425 C.ar    1  UNL1        0.0287
     26 C         139.1628  140.4219  164.7296 C.ar    1  UNL1        0.1002
     27 N         138.4125  140.2371  163.4439 N.ar    1  UNL1       -0.2104
     28 C         137.4853  139.8056  160.5470 C.3     1  UNL1        0.2542
     29 O         137.5491  138.6880  161.5454 O.3     1  UNL1       -0.4561
     30 N         141.2645  145.3921  158.0767 N.3     1  UNL1       -0.2926
     31 H         141.9643  144.7157  157.7715 H       1  UNL1        0.1236
     32 C         140.3260  145.5941  156.9241 C.3     1  UNL1        0.1152
     33 C         139.6953  144.4096  156.2540 C.ar    1  UNL1        0.0765
     34 C         140.2780  143.8693  154.9817 C.ar    1  UNL1        0.0193
     35 C         139.6472  142.6848  154.3115 C.ar    1  UNL1        0.0411
     36 C         138.4338  142.0406  154.9136 C.ar    1  UNL1        0.1708
     37 C         137.8511  142.5808  156.1858 C.ar    1  UNL1        0.1682
     38 N         138.4819  143.7654  156.8560 N.ar    1  UNL1       -0.2304
     39 N         136.6377  141.9366  156.7879 N.am    1  UNL1       -0.2639
     40 C         136.0069  140.7521  156.1178 C.2     1  UNL1        0.2718
     41 O         134.7935  140.1078  156.7199 O.2     1  UNL1       -0.2707
     42 C         136.5896  140.2118  154.8455 C.3     1  UNL1        0.2898
     43 O         137.8031  140.8560  154.2434 O.3     1  UNL1       -0.4628
     44 H         136.2552  142.2911  157.6229 H       1  UNL1        0.1565
@<TRIPOS>BOND
     1    28    29    1
     2    29    17    1
     3    17    18   ar
     4    18    19   ar
     5    19    20   ar
     6    20    21   ar
     7    21    22   ar
     8    22    23   ar
     9    23    24    1
    10    23    25   ar
    11    25    16    1
    12    16     9    1
    13     9    10    1
    14     9    12    1
    15    12    13    1
    16    12    14    1
    17    12    15    1
    18     9     1    1
    19     1     2    1
    20     2     3    1
    21     3     4    1
    22     4    30    1
    23    30    32    1
    24    32    33    1
    25    33    34   ar
    26    34    35   ar
    27    35    36   ar
    28    36    37   ar
    29    37    38   ar
    30    37    39    1
    31    39    40   am
    32    40    41    2
    33    40    42    1
    34    42    43    1
    35     4     5    1
    36     5     6    1
    37     4     7    1
    38     7     8    1
    39    25    26   ar
    40    26    27   ar
    41    27    17   ar
    42    26    20   ar
    43     6     1    1
    44     8     1    1
    45    38    33   ar
    46    43    36    1
    47    10    11    1
    48    30    31    1
    49    39    44    1
