@<TRIPOS>MOLECULE
*****
 36 40 0 0 0
SMALL
GASTEIGER

@<TRIPOS>ATOM
      1 C         140.8176  141.5370  169.6813 C.ar    1  UNL1        0.0684
      2 C         141.4244  140.2988  170.2716 C.ar    1  UNL1        0.0134
      3 C         142.2779  139.4038  169.4228 C.ar    1  UNL1        0.0373
      4 C         142.5247  139.7471  167.9836 C.ar    1  UNL1        0.1359
      5 C         141.9179  140.9853  167.3933 C.ar    1  UNL1        0.0285
      6 C         141.0644  141.8803  168.2421 C.ar    1  UNL1        0.0104
      7 C         142.0363  141.5084  165.9924 C.3     1  UNL1        0.1022
      8 N         142.7906  140.9223  164.8359 N.3     1  UNL1       -0.2678
      9 C         143.6129  139.6685  164.7946 C.3     1  UNL1        0.1061
     10 C         143.8839  138.6910  165.8997 C.3     1  UNL1        0.2215
     11 O         143.3996  138.7260  167.3189 O.3     1  UNL1       -0.4743
     12 C         142.7123  141.6919  163.5507 C.3     1  UNL1        0.0613
     13 C         141.4401  141.6975  162.7561 C.3     1  UNL1        0.0375
     14 C         141.3618  142.4670  161.4710 C.3     1  UNL1        0.0950
     15 N         142.5558  143.2311  160.9804 N.pl3   1  UNL1       -0.2784
     16 C         143.8280  143.2255  161.7750 C.3     1  UNL1        0.0950
     17 C         143.9063  142.4559  163.0602 C.3     1  UNL1        0.0375
     18 C         142.4774  144.0007  159.6953 C.ar    1  UNL1        0.2194
     19 N         141.8842  145.3673  159.5208 N.ar    1  UNL1       -0.1117
     20 N         142.0186  145.7501  158.0767 N.ar    1  UNL1       -0.1121
     21 C         142.6950  144.6199  157.3587 C.ar    1  UNL1        0.2131
     22 N         143.0291  144.5784  155.8970 N.pl3   1  UNL1       -0.3277
     23 N         142.9785  143.5389  158.3590 N.ar    1  UNL1       -0.2979
     24 H         142.8015  145.3416  155.3182 H       1  UNL1        0.1451
     25 H         143.4760  143.7880  155.5164 H       1  UNL1        0.1451
     26 H         143.4166  142.6774  158.1715 H       1  UNL1        0.1713
     27 N         139.1105  143.3270  171.3789 N.1     1  UNL1       -0.1908
     28 C         139.9641  142.4320  170.5301 C.1     1  UNL1        0.1004
     29 C         144.2482  139.3500  163.4736 C.3     1  UNL1        0.0461
     30 C         143.3892  139.0410  162.2834 C.ar    1  UNL1       -0.0207
     31 C         143.8122  139.4903  160.9162 C.ar    1  UNL1       -0.0034
     32 C         142.9533  139.1813  159.7260 C.ar    1  UNL1        0.0111
     33 C         141.6712  138.4229  159.9029 C.ar    1  UNL1        0.0577
     34 CL        140.8123  138.1139  158.7127 Cl      1  UNL1       -0.0822
     35 C         141.2482  137.9735  161.2701 C.ar    1  UNL1        0.0111
     36 C         142.1073  138.2826  162.4603 C.ar    1  UNL1       -0.0034
@<TRIPOS>BOND
     1    27    28    3
     2    28     1    1
     3     1     2   ar
     4     2     3   ar
     5     3     4   ar
     6     4     5   ar
     7     5     6   ar
     8     5     7    1
     9     7     8    1
    10     8    12    1
    11    12    13    1
    12    13    14    1
    13    14    15    1
    14    15    18    1
    15    18    19   ar
    16    19    20   ar
    17    20    21   ar
    18    21    22    1
    19    21    23   ar
    20    15    16    1
    21    16    17    1
    22     8     9    1
    23     9    29    1
    24    29    30    1
    25    30    31   ar
    26    31    32   ar
    27    32    33   ar
    28    33    34    1
    29    33    35   ar
    30    35    36   ar
    31     9    10    1
    32    10    11    1
    33     6     1   ar
    34    17    12    1
    35    36    30   ar
    36    11     4    1
    37    23    18   ar
    38    22    24    1
    39    22    25    1
    40    23    26    1
@<TRIPOS>MOLECULE
*****
 36 40 0 0 0
SMALL
GASTEIGER

@<TRIPOS>ATOM
      1 C         140.7219  141.6483  169.3705 C.ar    1  UNL1        0.0684
      2 C         141.3576  140.3753  169.8453 C.ar    1  UNL1        0.0134
      3 C         142.1254  139.5166  168.8845 C.ar    1  UNL1        0.0373
      4 C         142.2576  139.9309  167.4490 C.ar    1  UNL1        0.1359
      5 C         141.6219  141.2038  166.9742 C.ar    1  UNL1        0.0285
      6 C         140.8540  142.0625  167.9349 C.ar    1  UNL1        0.0104
      7 C         141.6318  141.7969  165.5964 C.3     1  UNL1        0.1022
      8 N         142.2798  141.2635  164.3532 N.3     1  UNL1       -0.2678
      9 C         143.0780  140.0053  164.1807 C.3     1  UNL1        0.1061
     10 C         143.4253  138.9697  165.2088 C.3     1  UNL1        0.2215
     11 O         143.0601  138.9366  166.6634 O.3     1  UNL1       -0.4743
     12 C         142.1068  142.0988  163.1194 C.3     1  UNL1        0.0613
     13 C         143.2650  142.8807  162.5743 C.3     1  UNL1        0.0375
     14 C         143.0919  143.7159  161.3405 C.3     1  UNL1        0.0950
     15 N         141.7605  143.7693  160.6517 N.pl3   1  UNL1       -0.2784
     16 C         140.6022  142.9875  161.1967 C.3     1  UNL1        0.0950
     17 C         140.7754  142.1522  162.4306 C.3     1  UNL1        0.0375
     18 C         141.5874  144.6047  159.4179 C.ar    1  UNL1        0.2194
     19 N         142.6094  144.8049  158.3384 N.ar    1  UNL1       -0.1117
     20 N         142.0157  145.7104  157.3002 N.ar    1  UNL1       -0.1121
     21 C         140.6267  146.0697  157.7382 C.ar    1  UNL1        0.2131
     22 N         139.6705  146.9566  156.9974 N.pl3   1  UNL1       -0.3277
     23 N         140.3621  145.3863  159.0469 N.ar    1  UNL1       -0.2979
     24 H         139.9376  147.3615  156.1407 H       1  UNL1        0.1451
     25 H         138.7757  147.1339  157.3679 H       1  UNL1        0.1451
     26 H         139.5302  145.4412  159.5706 H       1  UNL1        0.1713
     27 N         139.1862  143.3656  171.2920 N.1     1  UNL1       -0.1908
     28 C         139.9541  142.5070  170.3313 C.1     1  UNL1        0.1004
     29 C         143.5976  139.7487  162.7971 C.3     1  UNL1        0.0461
     30 C         142.6485  139.3785  161.6962 C.ar    1  UNL1       -0.0207
     31 C         141.4327  138.5540  161.9997 C.ar    1  UNL1       -0.0034
     32 C         140.4836  138.1839  160.8987 C.ar    1  UNL1        0.0111
     33 C         140.7502  138.6383  159.4942 C.ar    1  UNL1        0.0577
     34 CL        139.8011  138.2681  158.3933 Cl      1  UNL1       -0.0822
     35 C         141.9660  139.4628  159.1908 C.ar    1  UNL1        0.0111
     36 C         142.9152  139.8329  160.2918 C.ar    1  UNL1       -0.0034
@<TRIPOS>BOND
     1    27    28    3
     2    28     1    1
     3     1     2   ar
     4     2     3   ar
     5     3     4   ar
     6     4     5   ar
     7     5     6   ar
     8     5     7    1
     9     7     8    1
    10     8    12    1
    11    12    13    1
    12    13    14    1
    13    14    15    1
    14    15    18    1
    15    18    19   ar
    16    19    20   ar
    17    20    21   ar
    18    21    22    1
    19    21    23   ar
    20    15    16    1
    21    16    17    1
    22     8     9    1
    23     9    29    1
    24    29    30    1
    25    30    31   ar
    26    31    32   ar
    27    32    33   ar
    28    33    34    1
    29    33    35   ar
    30    35    36   ar
    31     9    10    1
    32    10    11    1
    33     6     1   ar
    34    17    12    1
    35    36    30   ar
    36    11     4    1
    37    23    18   ar
    38    22    24    1
    39    22    25    1
    40    23    26    1
@<TRIPOS>MOLECULE
*****
 36 40 0 0 0
SMALL
GASTEIGER

@<TRIPOS>ATOM
      1 C         141.3661  142.1274  169.1941 C.ar    1  UNL1        0.0684
      2 C         140.5662  140.9603  169.6920 C.ar    1  UNL1        0.0134
      3 C         139.7186  140.1707  168.7390 C.ar    1  UNL1        0.0373
      4 C         139.6709  140.5482  167.2881 C.ar    1  UNL1        0.1359
      5 C         140.4708  141.7153  166.7902 C.ar    1  UNL1        0.0285
      6 C         141.3185  142.5049  167.7431 C.ar    1  UNL1        0.0104
      7 C         140.5655  142.2570  165.3946 C.3     1  UNL1        0.1022
      8 N         139.8835  141.7654  164.1523 N.3     1  UNL1       -0.2678
      9 C         138.9385  140.6107  163.9988 C.3     1  UNL1        0.1061
     10 C         138.4421  139.6624  165.0496 C.3     1  UNL1        0.2215
     11 O         138.7680  139.6346  166.5136 O.3     1  UNL1       -0.4743
     12 C         140.1867  142.5295  162.8977 C.3     1  UNL1        0.0613
     13 C         139.1764  143.4881  162.3405 C.3     1  UNL1        0.0375
     14 C         139.4797  144.2522  161.0859 C.3     1  UNL1        0.0950
     15 N         140.7933  144.0578  160.3884 N.pl3   1  UNL1       -0.2784
     16 C         141.8036  143.0993  160.9454 C.3     1  UNL1        0.0950
     17 C         141.5003  142.3351  162.2001 C.3     1  UNL1        0.0375
     18 C         141.0965  144.8220  159.1337 C.ar    1  UNL1        0.2194
     19 N         142.4487  144.9838  158.5051 N.ar    1  UNL1       -0.1117
     20 N         142.2887  145.8203  157.2703 N.ar    1  UNL1       -0.1121
     21 C         140.8375  146.1754  157.1359 C.ar    1  UNL1        0.2131
     22 N         140.2300  147.0024  156.0418 N.pl3   1  UNL1       -0.3277
     23 N         140.1008  145.5584  158.2875 N.ar    1  UNL1       -0.2979
     24 H         140.7992  147.3658  155.3254 H       1  UNL1        0.1451
     25 H         139.2620  147.1818  156.0401 H       1  UNL1        0.1451
     26 H         139.1335  145.6251  158.4580 H       1  UNL1        0.1713
     27 N         143.0614  143.7065  171.1000 N.1     1  UNL1       -0.1908
     28 C         142.2138  142.9169  170.1470 C.1     1  UNL1        0.1004
     29 C         138.4216  140.3728  162.6109 C.3     1  UNL1        0.0461
     30 C         139.3228  139.7859  161.5652 C.ar    1  UNL1       -0.0207
     31 C         139.1567  140.1770  160.1267 C.ar    1  UNL1       -0.0034
     32 C         140.0579  139.5902  159.0810 C.ar    1  UNL1        0.0111
     33 C         141.1253  138.6122  159.4739 C.ar    1  UNL1        0.0577
     34 CL        142.0265  138.0254  158.4283 Cl      1  UNL1       -0.0822
     35 C         141.2914  138.2211  160.9125 C.ar    1  UNL1        0.0111
     36 C         140.3901  138.8080  161.9582 C.ar    1  UNL1       -0.0034
@<TRIPOS>BOND
     1    27    28    3
     2    28     1    1
     3     1     2   ar
     4     2     3   ar
     5     3     4   ar
     6     4     5   ar
     7     5     6   ar
     8     5     7    1
     9     7     8    1
    10     8    12    1
    11    12    13    1
    12    13    14    1
    13    14    15    1
    14    15    18    1
    15    18    19   ar
    16    19    20   ar
    17    20    21   ar
    18    21    22    1
    19    21    23   ar
    20    15    16    1
    21    16    17    1
    22     8     9    1
    23     9    29    1
    24    29    30    1
    25    30    31   ar
    26    31    32   ar
    27    32    33   ar
    28    33    34    1
    29    33    35   ar
    30    35    36   ar
    31     9    10    1
    32    10    11    1
    33     6     1   ar
    34    17    12    1
    35    36    30   ar
    36    11     4    1
    37    23    18   ar
    38    22    24    1
    39    22    25    1
    40    23    26    1
@<TRIPOS>MOLECULE
*****
 36 40 0 0 0
SMALL
GASTEIGER

@<TRIPOS>ATOM
      1 C         142.7200  137.7146  157.5251 C.ar    1  UNL1        0.0684
      2 C         142.8971  138.8305  156.5384 C.ar    1  UNL1        0.0134
      3 C         142.9588  140.2511  157.0160 C.ar    1  UNL1        0.0373
      4 C         142.8435  140.5559  158.4801 C.ar    1  UNL1        0.1359
      5 C         142.6665  139.4400  159.4667 C.ar    1  UNL1        0.0285
      6 C         142.6047  138.0194  158.9892 C.ar    1  UNL1        0.0104
      7 C         142.5319  139.5231  160.9584 C.3     1  UNL1        0.1022
      8 N         142.5412  140.7426  161.8318 N.3     1  UNL1       -0.2678
      9 C         142.6873  142.1801  161.4292 C.3     1  UNL1        0.1061
     10 C         142.8602  142.7533  160.0539 C.3     1  UNL1        0.2215
     11 O         142.9298  142.0304  158.7414 O.3     1  UNL1       -0.4743
     12 C         142.3835  140.4912  163.3021 C.3     1  UNL1        0.0613
     13 C         141.0414  140.1206  163.8600 C.3     1  UNL1        0.0375
     14 C         140.8838  139.8692  165.3304 C.3     1  UNL1        0.0950
     15 N         142.0683  139.9885  166.2429 N.pl3   1  UNL1       -0.2784
     16 C         143.4104  140.3591  165.6850 C.3     1  UNL1        0.0950
     17 C         143.5680  140.6105  164.2146 C.3     1  UNL1        0.0375
     18 C         141.9106  139.7371  167.7133 C.ar    1  UNL1        0.2194
     19 N         142.9501  139.1549  168.6246 N.ar    1  UNL1       -0.1117
     20 N         142.3677  139.0817  170.0050 N.ar    1  UNL1       -0.1121
     21 C         140.9683  139.6187  169.9467 C.ar    1  UNL1        0.2131
     22 N         140.0183  139.7309  171.1021 N.pl3   1  UNL1       -0.3277
     23 N         140.6858  140.0237  168.5304 N.ar    1  UNL1       -0.2979
     24 H         140.2973  139.4368  171.9992 H       1  UNL1        0.1451
     25 H         139.1156  140.0986  170.9632 H       1  UNL1        0.1451
     26 H         139.8443  140.4099  168.1959 H       1  UNL1        0.1713
     27 N         142.5965  134.8734  156.5700 N.1     1  UNL1       -0.1908
     28 C         142.6583  136.2940  157.0475 C.1     1  UNL1        0.1004
     29 C         142.6564  143.1763  162.5503 C.3     1  UNL1        0.0461
     30 C         141.3521  143.5373  163.1971 C.ar    1  UNL1       -0.0207
     31 C         141.2622  143.6544  164.6899 C.ar    1  UNL1       -0.0034
     32 C         139.9579  144.0153  165.3367 C.ar    1  UNL1        0.0111
     33 C         138.7434  144.2592  164.4908 C.ar    1  UNL1        0.0577
     34 CL        137.4391  144.6201  165.1377 Cl      1  UNL1       -0.0822
     35 C         138.8332  144.1421  162.9981 C.ar    1  UNL1        0.0111
     36 C         140.1376  143.7811  162.3513 C.ar    1  UNL1       -0.0034
@<TRIPOS>BOND
     1    27    28    3
     2    28     1    1
     3     1     2   ar
     4     2     3   ar
     5     3     4   ar
     6     4     5   ar
     7     5     6   ar
     8     5     7    1
     9     7     8    1
    10     8    12    1
    11    12    13    1
    12    13    14    1
    13    14    15    1
    14    15    18    1
    15    18    19   ar
    16    19    20   ar
    17    20    21   ar
    18    21    22    1
    19    21    23   ar
    20    15    16    1
    21    16    17    1
    22     8     9    1
    23     9    29    1
    24    29    30    1
    25    30    31   ar
    26    31    32   ar
    27    32    33   ar
    28    33    34    1
    29    33    35   ar
    30    35    36   ar
    31     9    10    1
    32    10    11    1
    33     6     1   ar
    34    17    12    1
    35    36    30   ar
    36    11     4    1
    37    23    18   ar
    38    22    24    1
    39    22    25    1
    40    23    26    1
@<TRIPOS>MOLECULE
*****
 36 40 0 0 0
SMALL
GASTEIGER

@<TRIPOS>ATOM
      1 C         140.0464  138.0610  156.3725 C.ar    1  UNL1        0.0684
      2 C         141.4212  138.1771  155.7840 C.ar    1  UNL1        0.0134
      3 C         142.6040  138.3995  156.6793 C.ar    1  UNL1        0.0373
      4 C         142.4119  138.5058  158.1631 C.ar    1  UNL1        0.1359
      5 C         141.0371  138.3897  158.7516 C.ar    1  UNL1        0.0285
      6 C         139.8544  138.1672  157.8563 C.ar    1  UNL1        0.0104
      7 C         140.6272  138.4656  160.1925 C.3     1  UNL1        0.1022
      8 N         141.4907  138.6765  161.4008 N.3     1  UNL1       -0.2678
      9 C         142.9775  138.8635  161.4665 C.3     1  UNL1        0.1061
     10 C         143.9680  138.8858  160.3403 C.3     1  UNL1        0.2215
     11 O         143.7163  138.7266  158.8701 O.3     1  UNL1       -0.4743
     12 C         140.7724  138.7040  162.7173 C.3     1  UNL1        0.0613
     13 C         140.1011  139.9633  163.1793 C.3     1  UNL1        0.0375
     14 C         139.3828  139.9908  164.4958 C.3     1  UNL1        0.0950
     15 N         139.3359  138.7589  165.3504 N.pl3   1  UNL1       -0.2784
     16 C         140.0072  137.4996  164.8885 C.3     1  UNL1        0.0950
     17 C         140.7255  137.4722  163.5719 C.3     1  UNL1        0.0375
     18 C         138.6175  138.7865  166.6670 C.ar    1  UNL1        0.2194
     19 N         137.3650  138.0329  167.0038 N.ar    1  UNL1       -0.1117
     20 N         136.9989  138.3531  168.4228 N.ar    1  UNL1       -0.1121
     21 C         138.0253  139.3044  168.9629 C.ar    1  UNL1        0.2131
     22 N         138.0473  139.8858  170.3455 N.pl3   1  UNL1       -0.3277
     23 N         139.0255  139.5722  167.8778 N.ar    1  UNL1       -0.2979
     24 H         137.3426  139.6483  170.9906 H       1  UNL1        0.1451
     25 H         138.7664  140.5049  170.6077 H       1  UNL1        0.1451
     26 H         139.8118  140.1605  167.9479 H       1  UNL1        0.1713
     27 N         137.6809  137.6161  154.5819 N.1     1  UNL1       -0.1908
     28 C         138.8637  137.8385  155.4772 C.1     1  UNL1        0.1004
     29 C         143.5496  139.0533  162.8401 C.3     1  UNL1        0.0461
     30 C         143.7434  140.4364  163.3873 C.ar    1  UNL1       -0.0207
     31 C         143.2871  140.7634  164.7783 C.ar    1  UNL1       -0.0034
     32 C         143.4809  142.1465  165.3255 C.ar    1  UNL1        0.0111
     33 C         144.1310  143.2026  164.4817 C.ar    1  UNL1        0.0577
     34 CL        144.3248  144.5857  165.0289 Cl      1  UNL1       -0.0822
     35 C         144.5873  142.8756  163.0907 C.ar    1  UNL1        0.0111
     36 C         144.3935  141.4925  162.5436 C.ar    1  UNL1       -0.0034
@<TRIPOS>BOND
     1    27    28    3
     2    28     1    1
     3     1     2   ar
     4     2     3   ar
     5     3     4   ar
     6     4     5   ar
     7     5     6   ar
     8     5     7    1
     9     7     8    1
    10     8    12    1
    11    12    13    1
    12    13    14    1
    13    14    15    1
    14    15    18    1
    15    18    19   ar
    16    19    20   ar
    17    20    21   ar
    18    21    22    1
    19    21    23   ar
    20    15    16    1
    21    16    17    1
    22     8     9    1
    23     9    29    1
    24    29    30    1
    25    30    31   ar
    26    31    32   ar
    27    32    33   ar
    28    33    34    1
    29    33    35   ar
    30    35    36   ar
    31     9    10    1
    32    10    11    1
    33     6     1   ar
    34    17    12    1
    35    36    30   ar
    36    11     4    1
    37    23    18   ar
    38    22    24    1
    39    22    25    1
    40    23    26    1
@<TRIPOS>MOLECULE
*****
 36 40 0 0 0
SMALL
GASTEIGER

@<TRIPOS>ATOM
      1 C         141.0169  142.4350  168.7958 C.ar    1  UNL1        0.0684
      2 C         141.9470  141.4517  169.4424 C.ar    1  UNL1        0.0134
      3 C         142.4565  140.2764  168.6620 C.ar    1  UNL1        0.0373
      4 C         142.0359  140.0843  167.2351 C.ar    1  UNL1        0.1359
      5 C         141.1058  141.0675  166.5885 C.ar    1  UNL1        0.0285
      6 C         140.5963  142.2429  167.3689 C.ar    1  UNL1        0.0104
      7 C         140.5660  141.0633  165.1890 C.3     1  UNL1        0.1022
      8 N         140.8230  140.0748  164.0904 N.3     1  UNL1       -0.2678
      9 C         141.6833  138.8464  164.1201 C.3     1  UNL1        0.1061
     10 C         142.4990  138.3031  165.2556 C.3     1  UNL1        0.2215
     11 O         142.6560  138.8540  166.6419 O.3     1  UNL1       -0.4743
     12 C         140.1279  140.3514  162.7904 C.3     1  UNL1        0.0613
     13 C         140.5964  141.4743  161.9132 C.3     1  UNL1        0.0375
     14 C         139.9012  141.7508  160.6132 C.3     1  UNL1        0.0950
     15 N         138.7373  140.9043  160.1902 N.pl3   1  UNL1       -0.2784
     16 C         138.2687  139.7814  161.0673 C.3     1  UNL1        0.0950
     17 C         138.9640  139.5049  162.3674 C.3     1  UNL1        0.0375
     18 C         138.0421  141.1809  158.8901 C.ar    1  UNL1        0.2194
     19 N         137.3415  140.1693  158.0324 N.ar    1  UNL1       -0.1117
     20 N         136.7918  140.8807  156.8317 N.ar    1  UNL1       -0.1121
     21 C         137.1528  142.3320  156.9474 C.ar    1  UNL1        0.2131
     22 N         136.8025  143.4087  155.9635 N.pl3   1  UNL1       -0.3277
     23 N         137.9255  142.5175  158.2195 N.ar    1  UNL1       -0.2979
     24 H         136.2893  143.1870  155.1531 H       1  UNL1        0.1451
     25 H         137.0858  144.3371  156.1281 H       1  UNL1        0.1451
     26 H         138.2918  143.3674  158.5553 H       1  UNL1        0.1713
     27 N         139.9979  144.7857  170.3565 N.1     1  UNL1       -0.1908
     28 C         140.5074  143.6103  169.5762 C.1     1  UNL1        0.1004
     29 C         141.7347  138.0569  162.8457 C.3     1  UNL1        0.0461
     30 C         142.3858  138.6411  161.6272 C.ar    1  UNL1       -0.0207
     31 C         143.5990  139.5116  161.7696 C.ar    1  UNL1       -0.0034
     32 C         144.2501  140.0958  160.5511 C.ar    1  UNL1        0.0111
     33 C         143.6880  139.8095  159.1902 C.ar    1  UNL1        0.0577
     34 CL        144.3391  140.3937  157.9717 Cl      1  UNL1       -0.0822
     35 C         142.4748  138.9390  159.0478 C.ar    1  UNL1        0.0111
     36 C         141.8237  138.3548  160.2663 C.ar    1  UNL1       -0.0034
@<TRIPOS>BOND
     1    27    28    3
     2    28     1    1
     3     1     2   ar
     4     2     3   ar
     5     3     4   ar
     6     4     5   ar
     7     5     6   ar
     8     5     7    1
     9     7     8    1
    10     8    12    1
    11    12    13    1
    12    13    14    1
    13    14    15    1
    14    15    18    1
    15    18    19   ar
    16    19    20   ar
    17    20    21   ar
    18    21    22    1
    19    21    23   ar
    20    15    16    1
    21    16    17    1
    22     8     9    1
    23     9    29    1
    24    29    30    1
    25    30    31   ar
    26    31    32   ar
    27    32    33   ar
    28    33    34    1
    29    33    35   ar
    30    35    36   ar
    31     9    10    1
    32    10    11    1
    33     6     1   ar
    34    17    12    1
    35    36    30   ar
    36    11     4    1
    37    23    18   ar
    38    22    24    1
    39    22    25    1
    40    23    26    1
@<TRIPOS>MOLECULE
*****
 36 40 0 0 0
SMALL
GASTEIGER

@<TRIPOS>ATOM
      1 C         137.7348  142.6454  155.7761 C.ar    1  UNL1        0.0684
      2 C         138.4676  143.7861  155.1346 C.ar    1  UNL1        0.0134
      3 C         139.3991  144.6328  155.9504 C.ar    1  UNL1        0.0373
      4 C         139.5977  144.3387  157.4078 C.ar    1  UNL1        0.1359
      5 C         138.8648  143.1979  158.0493 C.ar    1  UNL1        0.0285
      6 C         137.9334  142.3513  157.2335 C.ar    1  UNL1        0.0104
      7 C         138.9180  142.7361  159.4755 C.3     1  UNL1        0.1022
      8 N         139.7172  143.3009  160.6123 N.3     1  UNL1       -0.2678
      9 C         140.6605  144.4671  160.6037 C.3     1  UNL1        0.1061
     10 C         141.0377  145.3565  159.4562 C.3     1  UNL1        0.2215
     11 O         140.5647  145.2993  158.0339 O.3     1  UNL1       -0.4743
     12 C         139.5510  142.6079  161.9322 C.3     1  UNL1        0.0613
     13 C         140.3046  141.3422  162.2150 C.3     1  UNL1        0.0375
     14 C         140.1383  140.6493  163.5349 C.3     1  UNL1        0.0950
     15 N         139.2184  141.2220  164.5720 N.pl3   1  UNL1       -0.2784
     16 C         138.4648  142.4877  164.2893 C.3     1  UNL1        0.0950
     17 C         138.6311  143.1807  162.9693 C.3     1  UNL1        0.0375
     18 C         139.0522  140.5289  165.8919 C.ar    1  UNL1        0.2194
     19 N         138.0784  139.4286  166.1934 N.ar    1  UNL1       -0.1117
     20 N         138.2549  139.0341  167.6299 N.ar    1  UNL1       -0.1121
     21 C         139.3378  139.8908  168.2160 C.ar    1  UNL1        0.2131
     22 N         139.8397  139.8335  169.6284 N.pl3   1  UNL1       -0.3277
     23 N         139.8305  140.8145  167.1420 N.ar    1  UNL1       -0.2979
     24 H         139.4509  139.1893  170.2632 H       1  UNL1        0.1451
     25 H         140.5579  140.4402  169.9205 H       1  UNL1        0.1451
     26 H         140.5401  141.4898  167.2402 H       1  UNL1        0.1713
     27 N         135.8719  140.9521  154.1444 N.1     1  UNL1       -0.1908
     28 C         136.8033  141.7987  154.9603 C.1     1  UNL1        0.1004
     29 C         141.3129  144.7861  161.9162 C.3     1  UNL1        0.0461
     30 C         142.5020  143.9950  162.3746 C.ar    1  UNL1       -0.0207
     31 C         143.4109  143.3554  161.3672 C.ar    1  UNL1       -0.0034
     32 C         144.6000  142.5643  161.8256 C.ar    1  UNL1        0.0111
     33 C         144.8802  142.4127  163.2914 C.ar    1  UNL1        0.0577
     34 CL        146.0693  141.6215  163.7498 Cl      1  UNL1       -0.0822
     35 C         143.9713  143.0523  164.2988 C.ar    1  UNL1        0.0111
     36 C         142.7822  143.8434  163.8403 C.ar    1  UNL1       -0.0034
@<TRIPOS>BOND
     1    27    28    3
     2    28     1    1
     3     1     2   ar
     4     2     3   ar
     5     3     4   ar
     6     4     5   ar
     7     5     6   ar
     8     5     7    1
     9     7     8    1
    10     8    12    1
    11    12    13    1
    12    13    14    1
    13    14    15    1
    14    15    18    1
    15    18    19   ar
    16    19    20   ar
    17    20    21   ar
    18    21    22    1
    19    21    23   ar
    20    15    16    1
    21    16    17    1
    22     8     9    1
    23     9    29    1
    24    29    30    1
    25    30    31   ar
    26    31    32   ar
    27    32    33   ar
    28    33    34    1
    29    33    35   ar
    30    35    36   ar
    31     9    10    1
    32    10    11    1
    33     6     1   ar
    34    17    12    1
    35    36    30   ar
    36    11     4    1
    37    23    18   ar
    38    22    24    1
    39    22    25    1
    40    23    26    1
@<TRIPOS>MOLECULE
*****
 36 40 0 0 0
SMALL
GASTEIGER

@<TRIPOS>ATOM
      1 C         144.2731  142.2109  157.4592 C.ar    1  UNL1        0.0684
      2 C         143.0938  142.3423  156.5417 C.ar    1  UNL1        0.0134
      3 C         141.7047  142.3818  157.1065 C.ar    1  UNL1        0.0373
      4 C         141.4950  142.2899  158.5889 C.ar    1  UNL1        0.1359
      5 C         142.6743  142.1586  159.5064 C.ar    1  UNL1        0.0285
      6 C         144.0633  142.1191  158.9416 C.ar    1  UNL1        0.0104
      7 C         142.6879  142.0531  161.0026 C.3     1  UNL1        0.1022
      8 N         141.5256  142.0528  161.9509 N.3     1  UNL1       -0.2678
      9 C         140.0626  142.1580  161.6370 C.3     1  UNL1        0.1061
     10 C         139.4006  142.2895  160.2974 C.3     1  UNL1        0.2215
     11 O         140.0381  142.3482  158.9408 O.3     1  UNL1       -0.4743
     12 C         141.8721  141.9313  163.4052 C.3     1  UNL1        0.0613
     13 C         142.3402  140.6176  163.9575 C.3     1  UNL1        0.0375
     14 C         142.6867  140.4961  165.4118 C.3     1  UNL1        0.0950
     15 N         142.5652  141.6884  166.3139 N.pl3   1  UNL1       -0.2784
     16 C         142.0972  143.0021  165.7617 C.3     1  UNL1        0.0950
     17 C         141.7506  143.1235  164.3072 C.3     1  UNL1        0.0375
     18 C         142.9118  141.5668  167.7683 C.ar    1  UNL1        0.2194
     19 N         143.4629  142.6581  168.6374 N.ar    1  UNL1       -0.1117
     20 N         143.6599  142.0985  170.0152 N.ar    1  UNL1       -0.1121
     21 C         143.2304  140.6613  169.9974 C.ar    1  UNL1        0.2131
     22 N         143.2585  139.7184  171.1636 N.pl3   1  UNL1       -0.3277
     23 N         142.7682  140.3328  168.6088 N.ar    1  UNL1       -0.2979
     24 H         143.5809  140.0292  172.0403 H       1  UNL1        0.1451
     25 H         142.9544  138.7886  171.0523 H       1  UNL1        0.1451
     26 H         142.4298  139.4604  168.3028 H       1  UNL1        0.1713
     27 N         147.0511  142.1319  156.3296 N.1     1  UNL1       -0.1908
     28 C         145.6621  142.1714  156.8944 C.1     1  UNL1        0.1004
     29 C         139.1395  142.1278  162.8190 C.3     1  UNL1        0.0461
     30 C         138.9401  140.8522  163.5824 C.ar    1  UNL1       -0.0207
     31 C         138.6699  140.8951  165.0572 C.ar    1  UNL1       -0.0034
     32 C         138.4705  139.6195  165.8207 C.ar    1  UNL1        0.0111
     33 C         138.5412  138.3008  165.1093 C.ar    1  UNL1        0.0577
     34 CL        138.3418  137.0251  165.8727 Cl      1  UNL1       -0.0822
     35 C         138.8114  138.2578  163.6344 C.ar    1  UNL1        0.0111
     36 C         139.0108  139.5335  162.8710 C.ar    1  UNL1       -0.0034
@<TRIPOS>BOND
     1    27    28    3
     2    28     1    1
     3     1     2   ar
     4     2     3   ar
     5     3     4   ar
     6     4     5   ar
     7     5     6   ar
     8     5     7    1
     9     7     8    1
    10     8    12    1
    11    12    13    1
    12    13    14    1
    13    14    15    1
    14    15    18    1
    15    18    19   ar
    16    19    20   ar
    17    20    21   ar
    18    21    22    1
    19    21    23   ar
    20    15    16    1
    21    16    17    1
    22     8     9    1
    23     9    29    1
    24    29    30    1
    25    30    31   ar
    26    31    32   ar
    27    32    33   ar
    28    33    34    1
    29    33    35   ar
    30    35    36   ar
    31     9    10    1
    32    10    11    1
    33     6     1   ar
    34    17    12    1
    35    36    30   ar
    36    11     4    1
    37    23    18   ar
    38    22    24    1
    39    22    25    1
    40    23    26    1
@<TRIPOS>MOLECULE
*****
 36 40 0 0 0
SMALL
GASTEIGER

@<TRIPOS>ATOM
      1 C         141.9304  140.1124  168.7469 C.ar    1  UNL1        0.0684
      2 C         140.9157  140.9909  169.4164 C.ar    1  UNL1        0.0134
      3 C         140.2672  142.1059  168.6507 C.ar    1  UNL1        0.0373
      4 C         140.6335  142.3423  167.2155 C.ar    1  UNL1        0.1359
      5 C         141.6483  141.4638  166.5460 C.ar    1  UNL1        0.0285
      6 C         142.2968  140.3488  167.3117 C.ar    1  UNL1        0.0104
      7 C         142.1536  141.5260  165.1351 C.3     1  UNL1        0.1022
      8 N         141.7690  142.4822  164.0451 N.3     1  UNL1       -0.2678
      9 C         140.7841  143.6123  164.0971 C.3     1  UNL1        0.1061
     10 C         139.9404  144.0653  165.2517 C.3     1  UNL1        0.2215
     11 O         139.8734  143.5001  166.6395 O.3     1  UNL1       -0.4743
     12 C         142.4609  142.2817  162.7295 C.3     1  UNL1        0.0613
     13 C         142.0916  141.1186  161.8573 C.3     1  UNL1        0.0375
     14 C         142.7835  140.9182  160.5416 C.3     1  UNL1        0.0950
     15 N         143.8447  141.8810  160.0980 N.pl3   1  UNL1       -0.2784
     16 C         144.2141  143.0441  160.9701 C.3     1  UNL1        0.0950
     17 C         143.5221  143.2445  162.2859 C.3     1  UNL1        0.0375
     18 C         144.5366  141.6805  158.7823 C.ar    1  UNL1        0.2194
     19 N         144.6093  140.3959  158.0112 N.ar    1  UNL1       -0.1117
     20 N         145.3949  140.6508  156.7590 N.ar    1  UNL1       -0.1121
     21 C         145.8076  142.0929  156.7562 C.ar    1  UNL1        0.2131
     22 N         146.6099  142.7783  155.6901 N.pl3   1  UNL1       -0.3277
     23 N         145.2772  142.7292  158.0066 N.ar    1  UNL1       -0.2979
     24 H         146.9145  142.2730  154.9020 H       1  UNL1        0.1451
     25 H         146.8319  143.7333  155.7785 H       1  UNL1        0.1451
     26 H         145.3945  143.6701  158.2718 H       1  UNL1        0.1713
     27 N         143.2274  137.8824  170.2783 N.1     1  UNL1       -0.1908
     28 C         142.5789  138.9974  169.5126 C.1     1  UNL1        0.1004
     29 C         140.6211  144.3925  162.8264 C.3     1  UNL1        0.0461
     30 C         139.9317  143.7713  161.6480 C.ar    1  UNL1       -0.0207
     31 C         140.3802  144.1035  160.2557 C.ar    1  UNL1       -0.0034
     32 C         139.6908  143.4823  159.0773 C.ar    1  UNL1        0.0111
     33 C         138.5527  142.5288  159.2911 C.ar    1  UNL1        0.0577
     34 CL        137.8632  141.9076  158.1127 Cl      1  UNL1       -0.0822
     35 C         138.1041  142.1966  160.6834 C.ar    1  UNL1        0.0111
     36 C         138.7936  142.8179  161.8618 C.ar    1  UNL1       -0.0034
@<TRIPOS>BOND
     1    27    28    3
     2    28     1    1
     3     1     2   ar
     4     2     3   ar
     5     3     4   ar
     6     4     5   ar
     7     5     6   ar
     8     5     7    1
     9     7     8    1
    10     8    12    1
    11    12    13    1
    12    13    14    1
    13    14    15    1
    14    15    18    1
    15    18    19   ar
    16    19    20   ar
    17    20    21   ar
    18    21    22    1
    19    21    23   ar
    20    15    16    1
    21    16    17    1
    22     8     9    1
    23     9    29    1
    24    29    30    1
    25    30    31   ar
    26    31    32   ar
    27    32    33   ar
    28    33    34    1
    29    33    35   ar
    30    35    36   ar
    31     9    10    1
    32    10    11    1
    33     6     1   ar
    34    17    12    1
    35    36    30   ar
    36    11     4    1
    37    23    18   ar
    38    22    24    1
    39    22    25    1
    40    23    26    1
