@<TRIPOS>MOLECULE
*****
 39 44 0 0 0
SMALL
GASTEIGER

@<TRIPOS>ATOM
      1 C         140.3064  145.3208  158.1503 C.3     1  UNL1        0.0294
      2 C         140.0419  144.1920  157.1984 C.3     1  UNL1        0.0666
      3 S         139.0454  143.1289  157.5541 S.3     1  UNL1       -0.0756
      4 C         139.5848  141.0279  160.7729 C.ar    1  UNL1        0.1669
      5 N         138.6210  142.0675  161.2634 N.ar    1  UNL1       -0.1282
      6 N         138.3017  142.9810  160.1173 N.ar    1  UNL1       -0.1221
      7 C         139.0681  142.5061  158.9185 C.ar    1  UNL1        0.1932
      8 N         139.8610  141.2990  159.3237 N.ar    1  UNL1       -0.2884
      9 C         140.7706  140.5027  158.4355 C.3     1  UNL1        0.1340
     10 C         138.4733  139.1608  167.2943 C.3     1  UNL1        0.0521
     11 C         138.8973  139.3489  165.8678 C.ar    1  UNL1        0.0593
     12 C         138.3125  140.4638  165.0523 C.ar    1  UNL1        0.0147
     13 C         138.7366  140.6518  163.6258 C.ar    1  UNL1        0.0028
     14 C         139.7455  139.7250  163.0149 C.ar    1  UNL1        0.0206
     15 C         140.1695  139.9131  161.5884 C.ar    1  UNL1        0.0374
     16 C         141.1783  138.9862  160.9775 C.ar    1  UNL1        0.0031
     17 C         141.7631  137.8713  161.7930 C.ar    1  UNL1        0.0016
     18 C         141.3391  137.6833  163.2194 C.ar    1  UNL1        0.0191
     19 C         140.3302  138.6101  163.8304 C.ar    1  UNL1        0.0810
     20 N         139.9062  138.4220  165.2569 N.ar    1  UNL1       -0.2497
     21 C         141.5849  145.3572  158.9338 C.3     1  UNL1        0.0730
     22 N         141.6926  144.6081  160.2289 N.3     1  UNL1       -0.2720
     23 C         140.8398  145.1220  161.3508 C.3     1  UNL1        0.0768
     24 C         140.7226  144.5989  162.7518 C.3     1  UNL1        0.0434
     25 C         141.4291  143.4327  163.3767 C.ar    1  UNL1       -0.0230
     26 C         141.0232  143.2495  164.8091 C.ar    1  UNL1        0.0178
     27 C         141.6155  142.1352  165.6199 C.ar    1  UNL1        0.1184
     28 N         141.4094  141.7105  167.0437 N.ar    1  UNL1       -0.2075
     29 C         142.2804  140.5168  167.3020 C.ar    1  UNL1        0.2679
     30 O         143.0247  140.2039  166.0380 O.2     1  UNL1       -0.4337
     31 C         142.6139  141.2040  164.9984 C.ar    1  UNL1        0.1643
     32 C         143.0198  141.3872  163.5660 C.ar    1  UNL1        0.0346
     33 C         142.4275  142.5015  162.7552 C.ar    1  UNL1       -0.0216
     34 C         142.9658  142.5066  161.3551 C.3     1  UNL1        0.0434
     35 C         142.6387  143.4442  160.2308 C.3     1  UNL1        0.0768
     36 C         142.3879  139.7677  168.5972 C.3     1  UNL1        0.3303
     37 C         142.4955  139.0188  169.8923 C.3     1  UNL1        0.0822
     38 F         143.0032  138.6063  167.8744 F       1  UNL1       -0.1945
     39 F         141.7727  140.9292  169.3200 F       1  UNL1       -0.1945
@<TRIPOS>BOND
     1    10    11    1
     2    11    12   ar
     3    12    13   ar
     4    13    14   ar
     5    14    15   ar
     6    15     4    1
     7     4     5   ar
     8     5     6   ar
     9     6     7   ar
    10     7     3    1
    11     3     2    1
    12     2     1    1
    13     1    21    1
    14    21    22    1
    15    22    23    1
    16    23    24    1
    17    24    25    1
    18    25    26   ar
    19    26    27   ar
    20    27    28   ar
    21    28    29   ar
    22    29    36    1
    23    36    37    1
    24    36    38    1
    25    36    39    1
    26    29    30   ar
    27    30    31   ar
    28    31    32   ar
    29    32    33   ar
    30    33    34    1
    31    34    35    1
    32     7     8   ar
    33     8     9    1
    34    15    16   ar
    35    16    17   ar
    36    17    18   ar
    37    18    19   ar
    38    19    20   ar
    39    20    11   ar
    40    19    14   ar
    41     8     4   ar
    42    35    22    1
    43    33    25   ar
    44    31    27   ar
@<TRIPOS>MOLECULE
*****
 39 44 0 0 0
SMALL
GASTEIGER

@<TRIPOS>ATOM
      1 C         142.7477  142.6375  157.8234 C.3     1  UNL1        0.0294
      2 C         142.9216  141.6698  156.6904 C.3     1  UNL1        0.0666
      3 S         142.2253  140.3418  156.7248 S.3     1  UNL1       -0.0756
      4 C         141.4536  138.6629  160.1383 C.ar    1  UNL1        0.1669
      5 N         142.7582  138.0128  159.7838 N.ar    1  UNL1       -0.1282
      6 N         143.2060  138.5626  158.4621 N.ar    1  UNL1       -0.1221
      7 C         142.1782  139.5525  157.9996 C.ar    1  UNL1        0.1932
      8 N         141.0952  139.6144  159.0355 N.ar    1  UNL1       -0.2884
      9 C         139.8690  140.4766  158.9787 C.3     1  UNL1        0.1340
     10 C         143.2453  138.7900  166.7734 C.3     1  UNL1        0.0521
     11 C         142.5962  138.6941  165.4244 C.ar    1  UNL1        0.0593
     12 C         143.4010  138.9506  164.1849 C.ar    1  UNL1        0.0147
     13 C         142.7518  138.8547  162.8360 C.ar    1  UNL1        0.0028
     14 C         141.2979  138.5023  162.7267 C.ar    1  UNL1        0.0206
     15 C         140.6488  138.4065  161.3778 C.ar    1  UNL1        0.0374
     16 C         139.1949  138.0541  161.2686 C.ar    1  UNL1        0.0031
     17 C         138.3901  137.7976  162.5081 C.ar    1  UNL1        0.0016
     18 C         139.0392  137.8935  163.8569 C.ar    1  UNL1        0.0191
     19 C         140.4931  138.2459  163.9663 C.ar    1  UNL1        0.0810
     20 N         141.1422  138.3417  165.3152 N.ar    1  UNL1       -0.2497
     21 C         143.8533  142.8349  158.8176 C.3     1  UNL1        0.0730
     22 N         143.5680  142.7334  160.2867 N.3     1  UNL1       -0.2720
     23 C         142.1228  142.5845  160.6601 C.3     1  UNL1        0.0768
     24 C         141.5182  142.4597  162.0273 C.3     1  UNL1        0.0434
     25 C         142.2094  142.4528  163.3584 C.ar    1  UNL1       -0.0230
     26 C         141.2290  142.3067  164.4842 C.ar    1  UNL1        0.0178
     27 C         141.7151  142.2769  165.9030 C.ar    1  UNL1        0.1184
     28 N         140.9905  142.1444  167.2096 N.ar    1  UNL1       -0.2075
     29 C         142.0092  142.1787  168.3101 C.ar    1  UNL1        0.2679
     30 O         143.3633  142.3325  167.6836 O.2     1  UNL1       -0.4337
     31 C         143.1816  142.3931  166.1960 C.ar    1  UNL1        0.1643
     32 C         144.1621  142.5392  165.0701 C.ar    1  UNL1        0.0346
     33 C         143.6760  142.5690  163.6514 C.ar    1  UNL1       -0.0216
     34 C         144.8135  142.7209  162.6855 C.3     1  UNL1        0.0434
     35 C         144.7653  142.7940  161.1880 C.3     1  UNL1        0.0768
     36 C         141.7237  142.0772  169.7792 C.3     1  UNL1        0.3303
     37 C         141.4383  141.9757  171.2483 C.3     1  UNL1        0.0822
     38 F         141.8504  140.5846  169.7007 F       1  UNL1       -0.1945
     39 F         141.5971  143.5698  169.8578 F       1  UNL1       -0.1945
@<TRIPOS>BOND
     1    10    11    1
     2    11    12   ar
     3    12    13   ar
     4    13    14   ar
     5    14    15   ar
     6    15     4    1
     7     4     5   ar
     8     5     6   ar
     9     6     7   ar
    10     7     3    1
    11     3     2    1
    12     2     1    1
    13     1    21    1
    14    21    22    1
    15    22    23    1
    16    23    24    1
    17    24    25    1
    18    25    26   ar
    19    26    27   ar
    20    27    28   ar
    21    28    29   ar
    22    29    36    1
    23    36    37    1
    24    36    38    1
    25    36    39    1
    26    29    30   ar
    27    30    31   ar
    28    31    32   ar
    29    32    33   ar
    30    33    34    1
    31    34    35    1
    32     7     8   ar
    33     8     9    1
    34    15    16   ar
    35    16    17   ar
    36    17    18   ar
    37    18    19   ar
    38    19    20   ar
    39    20    11   ar
    40    19    14   ar
    41     8     4   ar
    42    35    22    1
    43    33    25   ar
    44    31    27   ar
@<TRIPOS>MOLECULE
*****
 39 44 0 0 0
SMALL
GASTEIGER

@<TRIPOS>ATOM
      1 C         142.8384  138.7133  157.9459 C.3     1  UNL1        0.0294
      2 C         141.5633  138.6849  157.1562 C.3     1  UNL1        0.0666
      3 S         140.6951  139.9063  157.0895 S.3     1  UNL1       -0.0756
      4 C         138.5628  140.9407  160.1634 C.ar    1  UNL1        0.1669
      5 N         137.5783  140.1111  159.3935 N.ar    1  UNL1       -0.1282
      6 N         138.2573  139.6227  158.1484 N.ar    1  UNL1       -0.1221
      7 C         139.6614  140.1503  158.1486 C.ar    1  UNL1        0.1932
      8 N         139.8502  140.9649  159.3939 N.ar    1  UNL1       -0.2884
      9 C         141.1060  141.6785  159.7988 C.3     1  UNL1        0.1340
     10 C         138.2939  138.4548  166.5664 C.3     1  UNL1        0.0521
     11 C         138.2967  139.2475  165.2929 C.ar    1  UNL1        0.0593
     12 C         138.5544  138.5625  163.9836 C.ar    1  UNL1        0.0147
     13 C         138.5572  139.3552  162.7102 C.ar    1  UNL1        0.0028
     14 C         138.3024  140.8330  162.7461 C.ar    1  UNL1        0.0206
     15 C         138.3052  141.6257  161.4726 C.ar    1  UNL1        0.0374
     16 C         138.0503  143.1034  161.5086 C.ar    1  UNL1        0.0031
     17 C         137.7927  143.7885  162.8180 C.ar    1  UNL1        0.0016
     18 C         137.7898  142.9958  164.0913 C.ar    1  UNL1        0.0191
     19 C         138.0447  141.5180  164.0554 C.ar    1  UNL1        0.0810
     20 N         138.0419  140.7253  165.3289 N.ar    1  UNL1       -0.2497
     21 C         142.9808  137.8601  159.1713 C.3     1  UNL1        0.0730
     22 N         142.9653  138.4924  160.5314 N.3     1  UNL1       -0.2720
     23 C         142.1204  137.8016  161.5606 C.3     1  UNL1        0.0768
     24 C         141.8982  138.1797  162.9951 C.3     1  UNL1        0.0434
     25 C         142.4660  139.3417  163.7547 C.ar    1  UNL1       -0.0230
     26 C         141.9874  139.3537  165.1763 C.ar    1  UNL1        0.0178
     27 C         142.4390  140.4368  166.1106 C.ar    1  UNL1        0.1184
     28 N         142.1367  140.7072  167.5547 N.ar    1  UNL1       -0.2075
     29 C         142.8801  141.9454  167.9600 C.ar    1  UNL1        0.2679
     30 O         143.6418  142.4403  166.7664 O.2     1  UNL1       -0.4337
     31 C         143.3692  141.5080  165.6234 C.ar    1  UNL1        0.1643
     32 C         143.8478  141.4960  164.2018 C.ar    1  UNL1        0.0346
     33 C         143.3962  140.4129  163.2675 C.ar    1  UNL1       -0.0216
     34 C         143.9883  140.5865  161.9003 C.3     1  UNL1        0.0434
     35 C         143.7965  139.7317  160.6827 C.3     1  UNL1        0.0768
     36 C         142.8645  142.5776  169.3202 C.3     1  UNL1        0.3303
     37 C         142.8489  143.2097  170.6803 C.3     1  UNL1        0.0822
     38 F         141.3734  142.7176  169.2380 F       1  UNL1       -0.1945
     39 F         144.3557  142.4375  169.4024 F       1  UNL1       -0.1945
@<TRIPOS>BOND
     1    10    11    1
     2    11    12   ar
     3    12    13   ar
     4    13    14   ar
     5    14    15   ar
     6    15     4    1
     7     4     5   ar
     8     5     6   ar
     9     6     7   ar
    10     7     3    1
    11     3     2    1
    12     2     1    1
    13     1    21    1
    14    21    22    1
    15    22    23    1
    16    23    24    1
    17    24    25    1
    18    25    26   ar
    19    26    27   ar
    20    27    28   ar
    21    28    29   ar
    22    29    36    1
    23    36    37    1
    24    36    38    1
    25    36    39    1
    26    29    30   ar
    27    30    31   ar
    28    31    32   ar
    29    32    33   ar
    30    33    34    1
    31    34    35    1
    32     7     8   ar
    33     8     9    1
    34    15    16   ar
    35    16    17   ar
    36    17    18   ar
    37    18    19   ar
    38    19    20   ar
    39    20    11   ar
    40    19    14   ar
    41     8     4   ar
    42    35    22    1
    43    33    25   ar
    44    31    27   ar
@<TRIPOS>MOLECULE
*****
 39 44 0 0 0
SMALL
GASTEIGER

@<TRIPOS>ATOM
      1 C         140.7888  145.4084  159.0122 C.3     1  UNL1        0.0294
      2 C         140.0332  144.5931  158.0050 C.3     1  UNL1        0.0666
      3 S         140.2298  143.1073  157.9432 S.3     1  UNL1       -0.0756
      4 C         140.5618  141.2472  161.3337 C.ar    1  UNL1        0.1669
      5 N         141.9608  141.1360  160.8038 N.ar    1  UNL1       -0.1282
      6 N         142.0066  141.8193  159.4693 N.ar    1  UNL1       -0.1221
      7 C         140.6360  142.3528  159.1743 C.ar    1  UNL1        0.1932
      8 N         139.7432  141.9992  160.3266 N.ar    1  UNL1       -0.2884
      9 C         138.2872  142.3382  160.4501 C.3     1  UNL1        0.1340
     10 C         143.8987  138.0547  166.4252 C.3     1  UNL1        0.0521
     11 C         142.9411  138.7166  165.4791 C.ar    1  UNL1        0.0593
     12 C         143.4346  139.2616  164.1717 C.ar    1  UNL1        0.0147
     13 C         142.4770  139.9235  163.2257 C.ar    1  UNL1        0.0028
     14 C         141.0259  140.0403  163.5871 C.ar    1  UNL1        0.0206
     15 C         140.0683  140.7022  162.6410 C.ar    1  UNL1        0.0374
     16 C         138.6172  140.8189  163.0025 C.ar    1  UNL1        0.0031
     17 C         138.1237  140.2738  164.3099 C.ar    1  UNL1        0.0016
     18 C         139.0812  139.6120  165.2558 C.ar    1  UNL1        0.0191
     19 C         140.5323  139.4952  164.8945 C.ar    1  UNL1        0.0810
     20 N         141.4899  138.8333  165.8406 N.ar    1  UNL1       -0.2497
     21 C         140.1214  145.8321  160.2870 C.3     1  UNL1        0.0730
     22 N         140.4585  145.1420  161.5754 N.3     1  UNL1       -0.2720
     23 C         139.3249  144.9845  162.5452 C.3     1  UNL1        0.0768
     24 C         139.3375  144.3467  163.9029 C.3     1  UNL1        0.0434
     25 C         140.4864  143.7090  164.6259 C.ar    1  UNL1       -0.0230
     26 C         140.0681  143.1901  165.9698 C.ar    1  UNL1        0.0178
     27 C         141.0701  142.5137  166.8577 C.ar    1  UNL1        0.1184
     28 N         140.9518  141.9060  168.2239 N.ar    1  UNL1       -0.2075
     29 C         142.2989  141.3729  168.6125 C.ar    1  UNL1        0.2679
     30 O         143.2499  141.6511  167.4864 O.2     1  UNL1       -0.4337
     31 C         142.4905  142.3561  166.4019 C.ar    1  UNL1        0.1643
     32 C         142.9088  142.8750  165.0580 C.ar    1  UNL1        0.0346
     33 C         141.9068  143.5514  164.1701 C.ar    1  UNL1       -0.0216
     34 C         142.5289  143.9927  162.8785 C.3     1  UNL1        0.0434
     35 C         141.8843  144.7006  161.7238 C.3     1  UNL1        0.0768
     36 C         142.6358  140.6828  169.9010 C.3     1  UNL1        0.3303
     37 C         142.9728  139.9928  171.1895 C.3     1  UNL1        0.0822
     38 F         142.7931  139.3853  169.1650 F       1  UNL1       -0.1945
     39 F         142.4786  141.9803  170.6371 F       1  UNL1       -0.1945
@<TRIPOS>BOND
     1    10    11    1
     2    11    12   ar
     3    12    13   ar
     4    13    14   ar
     5    14    15   ar
     6    15     4    1
     7     4     5   ar
     8     5     6   ar
     9     6     7   ar
    10     7     3    1
    11     3     2    1
    12     2     1    1
    13     1    21    1
    14    21    22    1
    15    22    23    1
    16    23    24    1
    17    24    25    1
    18    25    26   ar
    19    26    27   ar
    20    27    28   ar
    21    28    29   ar
    22    29    36    1
    23    36    37    1
    24    36    38    1
    25    36    39    1
    26    29    30   ar
    27    30    31   ar
    28    31    32   ar
    29    32    33   ar
    30    33    34    1
    31    34    35    1
    32     7     8   ar
    33     8     9    1
    34    15    16   ar
    35    16    17   ar
    36    17    18   ar
    37    18    19   ar
    38    19    20   ar
    39    20    11   ar
    40    19    14   ar
    41     8     4   ar
    42    35    22    1
    43    33    25   ar
    44    31    27   ar
@<TRIPOS>MOLECULE
*****
 39 44 0 0 0
SMALL
GASTEIGER

@<TRIPOS>ATOM
      1 C         144.5486  141.4775  158.0893 C.3     1  UNL1        0.0294
      2 C         143.5184  140.6517  157.3773 C.3     1  UNL1        0.0666
      3 S         143.1384  139.3027  157.9118 S.3     1  UNL1       -0.0756
      4 C         141.8870  139.0993  161.5803 C.ar    1  UNL1        0.1669
      5 N         143.2750  138.5469  161.7165 N.ar    1  UNL1       -0.1282
      6 N         143.9127  138.5559  160.3588 N.ar    1  UNL1       -0.1221
      7 C         142.9188  139.1138  159.3836 C.ar    1  UNL1        0.1932
      8 N         141.6670  139.4496  160.1385 N.ar    1  UNL1       -0.2884
      9 C         140.4148  140.0333  159.5543 C.3     1  UNL1        0.1340
     10 C         142.7254  139.1295  168.4029 C.3     1  UNL1        0.0521
     11 C         142.2675  139.1649  166.9749 C.ar    1  UNL1        0.0593
     12 C         143.2609  138.9931  165.8642 C.ar    1  UNL1        0.0147
     13 C         142.8029  139.0285  164.4363 C.ar    1  UNL1        0.0028
     14 C         141.3516  139.2357  164.1189 C.ar    1  UNL1        0.0206
     15 C         140.8937  139.2711  162.6909 C.ar    1  UNL1        0.0374
     16 C         139.4423  139.4783  162.3738 C.ar    1  UNL1        0.0031
     17 C         138.4489  139.6501  163.4845 C.ar    1  UNL1        0.0016
     18 C         138.9068  139.6148  164.9123 C.ar    1  UNL1        0.0191
     19 C         140.3582  139.4075  165.2296 C.ar    1  UNL1        0.0810
     20 N         140.8161  139.3722  166.6576 N.ar    1  UNL1       -0.2497
     21 C         144.1528  142.7658  158.7478 C.3     1  UNL1        0.0730
     22 N         143.6401  142.7610  160.1575 N.3     1  UNL1       -0.2720
     23 C         144.6735  142.5549  161.2251 C.3     1  UNL1        0.0768
     24 C         144.4837  142.4999  162.7121 C.3     1  UNL1        0.0434
     25 C         143.2140  142.6372  163.4986 C.ar    1  UNL1       -0.0230
     26 C         143.4668  142.5199  164.9725 C.ar    1  UNL1        0.0178
     27 C         142.3259  142.6289  165.9402 C.ar    1  UNL1        0.1184
     28 N         142.2690  142.5544  167.4372 N.ar    1  UNL1       -0.2075
     29 C         140.8401  142.7347  167.8563 C.ar    1  UNL1        0.2679
     30 O         140.0139  142.9206  166.6183 O.2     1  UNL1       -0.4337
     31 C         140.9321  142.8553  165.4341 C.ar    1  UNL1        0.1643
     32 C         140.6793  142.9726  163.9602 C.ar    1  UNL1        0.0346
     33 C         141.8201  142.8636  162.9925 C.ar    1  UNL1       -0.0216
     34 C         141.3520  143.0085  161.5748 C.3     1  UNL1        0.0434
     35 C         142.1620  142.9628  160.3131 C.3     1  UNL1        0.0768
     36 C         140.3274  142.7299  169.2660 C.3     1  UNL1        0.3303
     37 C         139.8148  142.7250  170.6756 C.3     1  UNL1        0.0822
     38 F         140.5437  144.2118  169.3498 F       1  UNL1       -0.1945
     39 F         140.1111  141.2479  169.1823 F       1  UNL1       -0.1945
@<TRIPOS>BOND
     1    10    11    1
     2    11    12   ar
     3    12    13   ar
     4    13    14   ar
     5    14    15   ar
     6    15     4    1
     7     4     5   ar
     8     5     6   ar
     9     6     7   ar
    10     7     3    1
    11     3     2    1
    12     2     1    1
    13     1    21    1
    14    21    22    1
    15    22    23    1
    16    23    24    1
    17    24    25    1
    18    25    26   ar
    19    26    27   ar
    20    27    28   ar
    21    28    29   ar
    22    29    36    1
    23    36    37    1
    24    36    38    1
    25    36    39    1
    26    29    30   ar
    27    30    31   ar
    28    31    32   ar
    29    32    33   ar
    30    33    34    1
    31    34    35    1
    32     7     8   ar
    33     8     9    1
    34    15    16   ar
    35    16    17   ar
    36    17    18   ar
    37    18    19   ar
    38    19    20   ar
    39    20    11   ar
    40    19    14   ar
    41     8     4   ar
    42    35    22    1
    43    33    25   ar
    44    31    27   ar
@<TRIPOS>MOLECULE
*****
 39 44 0 0 0
SMALL
GASTEIGER

@<TRIPOS>ATOM
      1 C         139.6239  138.7679  158.1772 C.3     1  UNL1        0.0294
      2 C         140.1764  139.3708  156.9196 C.3     1  UNL1        0.0666
      3 S         141.6227  139.7620  156.8480 S.3     1  UNL1       -0.0756
      4 C         143.4176  140.5479  160.1985 C.ar    1  UNL1        0.1669
      5 N         144.0251  139.2219  159.8483 N.ar    1  UNL1       -0.1282
      6 N         143.4267  138.7661  158.5506 N.ar    1  UNL1       -0.1221
      7 C         142.4493  139.8104  158.0988 C.ar    1  UNL1        0.1932
      8 N         142.4437  140.9116  159.1172 N.ar    1  UNL1       -0.2884
      9 C         141.6104  142.1578  159.0638 C.3     1  UNL1        0.1340
     10 C         142.9655  139.0193  166.8850 C.3     1  UNL1        0.0521
     11 C         143.1564  139.6060  165.5178 C.ar    1  UNL1        0.0593
     12 C         142.8447  138.7875  164.3001 C.ar    1  UNL1        0.0147
     13 C         143.0357  139.3743  162.9329 C.ar    1  UNL1        0.0028
     14 C         143.5383  140.7797  162.7834 C.ar    1  UNL1        0.0206
     15 C         143.7292  141.3665  161.4162 C.ar    1  UNL1        0.0374
     16 C         144.2318  142.7718  161.2668 C.ar    1  UNL1        0.0031
     17 C         144.5435  143.5904  162.4845 C.ar    1  UNL1        0.0016
     18 C         144.3525  143.0036  163.8516 C.ar    1  UNL1        0.0191
     19 C         143.8499  141.5982  164.0011 C.ar    1  UNL1        0.0810
     20 N         143.6590  141.0115  165.3684 N.ar    1  UNL1       -0.2497
     21 C         138.6309  139.5319  159.0018 C.3     1  UNL1        0.0730
     22 N         138.8444  139.6883  160.4783 N.3     1  UNL1       -0.2720
     23 C         139.3374  141.0326  160.9258 C.3     1  UNL1        0.0768
     24 C         139.6444  141.5003  162.3176 C.3     1  UNL1        0.0434
     25 C         139.5343  140.7394  163.6055 C.ar    1  UNL1       -0.0230
     26 C         139.9414  141.5832  164.7770 C.ar    1  UNL1        0.0178
     27 C         139.9041  141.0105  166.1628 C.ar    1  UNL1        0.1184
     28 N         140.2445  141.5970  167.5007 N.ar    1  UNL1       -0.2075
     29 C         140.0105  140.5429  168.5420 C.ar    1  UNL1        0.2679
     30 O         139.5256  139.3050  167.8476 O.2     1  UNL1       -0.4337
     31 C         139.4598  139.5939  166.3772 C.ar    1  UNL1        0.1643
     32 C         139.0527  138.7501  165.2057 C.ar    1  UNL1        0.0346
     33 C         139.0900  139.3229  163.8199 C.ar    1  UNL1       -0.0216
     34 C         138.6460  138.3173  162.7992 C.3     1  UNL1        0.0434
     35 C         138.5367  138.4801  161.3121 C.3     1  UNL1        0.0768
     36 C         140.2241  140.6995  170.0185 C.3     1  UNL1        0.3303
     37 C         140.4376  140.8560  171.4949 C.3     1  UNL1        0.0822
     38 F         140.9517  139.3883  170.0523 F       1  UNL1       -0.1945
     39 F         139.4964  142.0107  169.9847 F       1  UNL1       -0.1945
@<TRIPOS>BOND
     1    10    11    1
     2    11    12   ar
     3    12    13   ar
     4    13    14   ar
     5    14    15   ar
     6    15     4    1
     7     4     5   ar
     8     5     6   ar
     9     6     7   ar
    10     7     3    1
    11     3     2    1
    12     2     1    1
    13     1    21    1
    14    21    22    1
    15    22    23    1
    16    23    24    1
    17    24    25    1
    18    25    26   ar
    19    26    27   ar
    20    27    28   ar
    21    28    29   ar
    22    29    36    1
    23    36    37    1
    24    36    38    1
    25    36    39    1
    26    29    30   ar
    27    30    31   ar
    28    31    32   ar
    29    32    33   ar
    30    33    34    1
    31    34    35    1
    32     7     8   ar
    33     8     9    1
    34    15    16   ar
    35    16    17   ar
    36    17    18   ar
    37    18    19   ar
    38    19    20   ar
    39    20    11   ar
    40    19    14   ar
    41     8     4   ar
    42    35    22    1
    43    33    25   ar
    44    31    27   ar
@<TRIPOS>MOLECULE
*****
 39 44 0 0 0
SMALL
GASTEIGER

@<TRIPOS>ATOM
      1 C         139.3449  139.7077  157.5263 C.3     1  UNL1        0.0294
      2 C         139.7842  138.2918  157.7555 C.3     1  UNL1        0.0666
      3 S         141.2346  137.9282  157.6375 S.3     1  UNL1       -0.0756
      4 C         143.4330  139.4704  160.4401 C.ar    1  UNL1        0.1669
      5 N         144.2035  139.8674  159.2157 N.ar    1  UNL1       -0.1282
      6 N         143.4737  139.3379  158.0170 N.ar    1  UNL1       -0.1221
      7 C         142.2523  138.6138  158.5003 C.ar    1  UNL1        0.1932
      8 N         142.2271  138.6957  159.9978 N.ar    1  UNL1       -0.2884
      9 C         141.1799  138.1063  160.8956 C.3     1  UNL1        0.1340
     10 C         143.6043  145.4660  163.7977 C.3     1  UNL1        0.0521
     11 C         143.6541  144.0474  163.3127 C.ar    1  UNL1        0.0593
     12 C         143.2836  143.7261  161.8951 C.ar    1  UNL1        0.0147
     13 C         143.3334  142.3075  161.4101 C.ar    1  UNL1        0.0028
     14 C         143.7537  141.2103  162.3426 C.ar    1  UNL1        0.0206
     15 C         143.8034  139.7917  161.8575 C.ar    1  UNL1        0.0374
     16 C         144.2237  138.6947  162.7901 C.ar    1  UNL1        0.0031
     17 C         144.5941  139.0160  164.2077 C.ar    1  UNL1        0.0016
     18 C         144.5443  140.4345  164.6927 C.ar    1  UNL1        0.0191
     19 C         144.1241  141.5317  163.7602 C.ar    1  UNL1        0.0810
     20 N         144.0743  142.9502  164.2453 N.ar    1  UNL1       -0.2497
     21 C         138.3575  140.3466  158.4572 C.3     1  UNL1        0.0730
     22 N         138.6099  140.3432  159.9358 N.3     1  UNL1       -0.2720
     23 C         139.6277  141.3308  160.4245 C.3     1  UNL1        0.0768
     24 C         140.0982  141.5718  161.8283 C.3     1  UNL1        0.0434
     25 C         139.6670  140.8848  163.0900 C.ar    1  UNL1       -0.0230
     26 C         140.3897  141.4307  164.2857 C.ar    1  UNL1        0.0178
     27 C         140.1043  140.8789  165.6510 C.ar    1  UNL1        0.1184
     28 N         140.6559  141.2149  167.0048 N.ar    1  UNL1       -0.2075
     29 C         139.9888  140.3248  168.0112 C.ar    1  UNL1        0.2679
     30 O         139.0249  139.4387  167.2793 O.2     1  UNL1       -0.4337
     31 C         139.0963  139.7812  165.8207 C.ar    1  UNL1        0.1643
     32 C         138.3736  139.2352  164.6250 C.ar    1  UNL1        0.0346
     33 C         138.6590  139.7870  163.2597 C.ar    1  UNL1       -0.0216
     34 C         137.8331  139.1052  162.2094 C.3     1  UNL1        0.0434
     35 C         137.8113  139.3528  160.7301 C.3     1  UNL1        0.0768
     36 C         140.2413  140.3215  169.4898 C.3     1  UNL1        0.3303
     37 C         140.4939  140.3181  170.9683 C.3     1  UNL1        0.0822
     38 F         139.0422  141.1985  169.6966 F       1  UNL1       -0.1945
     39 F         141.4405  139.4444  169.2830 F       1  UNL1       -0.1945
@<TRIPOS>BOND
     1    10    11    1
     2    11    12   ar
     3    12    13   ar
     4    13    14   ar
     5    14    15   ar
     6    15     4    1
     7     4     5   ar
     8     5     6   ar
     9     6     7   ar
    10     7     3    1
    11     3     2    1
    12     2     1    1
    13     1    21    1
    14    21    22    1
    15    22    23    1
    16    23    24    1
    17    24    25    1
    18    25    26   ar
    19    26    27   ar
    20    27    28   ar
    21    28    29   ar
    22    29    36    1
    23    36    37    1
    24    36    38    1
    25    36    39    1
    26    29    30   ar
    27    30    31   ar
    28    31    32   ar
    29    32    33   ar
    30    33    34    1
    31    34    35    1
    32     7     8   ar
    33     8     9    1
    34    15    16   ar
    35    16    17   ar
    36    17    18   ar
    37    18    19   ar
    38    19    20   ar
    39    20    11   ar
    40    19    14   ar
    41     8     4   ar
    42    35    22    1
    43    33    25   ar
    44    31    27   ar
@<TRIPOS>MOLECULE
*****
 39 44 0 0 0
SMALL
GASTEIGER

@<TRIPOS>ATOM
      1 C         140.3970  139.0827  157.8953 C.3     1  UNL1        0.0294
      2 C         141.7387  138.6482  157.3843 C.3     1  UNL1        0.0666
      3 S         142.9302  139.5443  157.5492 S.3     1  UNL1       -0.0756
      4 C         143.3756  141.5843  160.8211 C.ar    1  UNL1        0.1669
      5 N         144.1830  140.3588  161.1315 N.ar    1  UNL1       -0.1282
      6 N         144.1144  139.4455  159.9436 N.ar    1  UNL1       -0.1221
      7 C         143.2646  140.1065  158.8991 C.ar    1  UNL1        0.1932
      8 N         142.8081  141.4283  159.4415 N.ar    1  UNL1       -0.2884
      9 C         141.9368  142.4201  158.7292 C.3     1  UNL1        0.1340
     10 C         137.7040  143.9737  163.8829 C.3     1  UNL1        0.0521
     11 C         139.0709  143.6701  163.3448 C.ar    1  UNL1        0.0593
     12 C         139.2749  142.4950  162.4352 C.ar    1  UNL1        0.0147
     13 C         140.6418  142.1915  161.8972 C.ar    1  UNL1        0.0028
     14 C         141.8047  143.0630  162.2688 C.ar    1  UNL1        0.0206
     15 C         143.1716  142.7594  161.7307 C.ar    1  UNL1        0.0374
     16 C         144.3344  143.6310  162.1024 C.ar    1  UNL1        0.0031
     17 C         144.1304  144.8061  163.0121 C.ar    1  UNL1        0.0016
     18 C         142.7636  145.1096  163.5501 C.ar    1  UNL1        0.0191
     19 C         141.6007  144.2381  163.1785 C.ar    1  UNL1        0.0810
     20 N         140.2338  144.5417  163.7165 N.ar    1  UNL1       -0.2497
     21 C         139.6463  138.2162  158.8625 C.3     1  UNL1        0.0730
     22 N         139.7448  138.4775  160.3363 N.3     1  UNL1       -0.2720
     23 C         138.4564  138.8194  161.0242 C.3     1  UNL1        0.0768
     24 C         138.2237  139.1306  162.4730 C.3     1  UNL1        0.0434
     25 C         139.2218  139.1767  163.5916 C.ar    1  UNL1       -0.0230
     26 C         138.5684  139.5298  164.8949 C.ar    1  UNL1        0.0178
     27 C         139.3924  139.6292  166.1444 C.ar    1  UNL1        0.1184
     28 N         139.0296  139.9561  167.5626 N.ar    1  UNL1       -0.2075
     29 C         140.2828  139.9045  168.3854 C.ar    1  UNL1        0.2679
     30 O         141.4201  139.5457  167.4756 O.2     1  UNL1       -0.4337
     31 C         140.8699  139.3756  166.0906 C.ar    1  UNL1        0.1643
     32 C         141.5233  139.0225  164.7874 C.ar    1  UNL1        0.0346
     33 C         140.6993  138.9230  163.5379 C.ar    1  UNL1       -0.0216
     34 C         141.5434  138.5606  162.3522 C.3     1  UNL1        0.0434
     35 C         141.1186  138.3623  160.9273 C.3     1  UNL1        0.0768
     36 C         140.3812  140.1658  169.8592 C.3     1  UNL1        0.3303
     37 C         140.4796  140.4271  171.3329 C.3     1  UNL1        0.0822
     38 F         141.4743  139.1443  169.9673 F       1  UNL1       -0.1945
     39 F         139.2882  141.1873  169.7511 F       1  UNL1       -0.1945
@<TRIPOS>BOND
     1    10    11    1
     2    11    12   ar
     3    12    13   ar
     4    13    14   ar
     5    14    15   ar
     6    15     4    1
     7     4     5   ar
     8     5     6   ar
     9     6     7   ar
    10     7     3    1
    11     3     2    1
    12     2     1    1
    13     1    21    1
    14    21    22    1
    15    22    23    1
    16    23    24    1
    17    24    25    1
    18    25    26   ar
    19    26    27   ar
    20    27    28   ar
    21    28    29   ar
    22    29    36    1
    23    36    37    1
    24    36    38    1
    25    36    39    1
    26    29    30   ar
    27    30    31   ar
    28    31    32   ar
    29    32    33   ar
    30    33    34    1
    31    34    35    1
    32     7     8   ar
    33     8     9    1
    34    15    16   ar
    35    16    17   ar
    36    17    18   ar
    37    18    19   ar
    38    19    20   ar
    39    20    11   ar
    40    19    14   ar
    41     8     4   ar
    42    35    22    1
    43    33    25   ar
    44    31    27   ar
@<TRIPOS>MOLECULE
*****
 39 44 0 0 0
SMALL
GASTEIGER

@<TRIPOS>ATOM
      1 C         143.4164  142.9562  157.7268 C.3     1  UNL1        0.0294
      2 C         142.7387  142.0269  156.7638 C.3     1  UNL1        0.0666
      3 S         141.3021  141.6487  156.9714 S.3     1  UNL1       -0.0756
      4 C         139.8417  141.1665  160.5352 C.ar    1  UNL1        0.1669
      5 N         140.3913  139.7982  160.2595 N.ar    1  UNL1       -0.1282
      6 N         141.0052  139.8124  158.8910 N.ar    1  UNL1       -0.1221
      7 C         140.8351  141.1894  158.3209 C.ar    1  UNL1        0.1932
      8 N         140.1160  142.0262  159.3370 N.ar    1  UNL1       -0.2884
      9 C         139.7376  143.4694  159.1822 C.3     1  UNL1        0.1340
     10 C         138.2582  137.6728  166.2393 C.3     1  UNL1        0.0521
     11 C         138.4789  138.6544  165.1267 C.ar    1  UNL1        0.0593
     12 C         139.1797  138.2218  163.8730 C.ar    1  UNL1        0.0147
     13 C         139.4004  139.2034  162.7604 C.ar    1  UNL1        0.0028
     14 C         138.9202  140.6175  162.9015 C.ar    1  UNL1        0.0206
     15 C         139.1409  141.5990  161.7888 C.ar    1  UNL1        0.0374
     16 C         138.6607  143.0130  161.9300 C.ar    1  UNL1        0.0031
     17 C         137.9599  143.4455  163.1837 C.ar    1  UNL1        0.0016
     18 C         137.7392  142.4641  164.2962 C.ar    1  UNL1        0.0191
     19 C         138.2194  141.0500  164.1552 C.ar    1  UNL1        0.0810
     20 N         137.9987  140.0685  165.2678 N.ar    1  UNL1       -0.2497
     21 C         144.3033  142.4044  158.8032 C.3     1  UNL1        0.0730
     22 N         143.7499  142.1501  160.1740 N.3     1  UNL1       -0.2720
     23 C         143.0828  143.3205  160.8339 C.3     1  UNL1        0.0768
     24 C         142.4378  143.3889  162.1865 C.3     1  UNL1        0.0434
     25 C         142.3005  142.3040  163.2130 C.ar    1  UNL1       -0.0230
     26 C         141.5842  142.7945  164.4364 C.ar    1  UNL1        0.0178
     27 C         141.3418  141.8637  165.5873 C.ar    1  UNL1        0.1184
     28 N         140.6691  142.0611  166.9134 N.ar    1  UNL1       -0.2075
     29 C         140.7271  140.7618  167.6606 C.ar    1  UNL1        0.2679
     30 O         141.4357  139.7614  166.7964 O.2     1  UNL1       -0.4337
     31 C         141.8156  140.4423  165.5151 C.ar    1  UNL1        0.1643
     32 C         142.5319  139.9518  164.2918 C.ar    1  UNL1        0.0346
     33 C         142.7743  140.8826  163.1408 C.ar    1  UNL1       -0.0216
     34 C         143.5024  140.1951  162.0240 C.3     1  UNL1        0.0434
     35 C         143.9366  140.7593  160.7037 C.3     1  UNL1        0.0768
     36 C         140.1736  140.5077  169.0314 C.3     1  UNL1        0.3303
     37 C         139.6200  140.2535  170.4021 C.3     1  UNL1        0.0822
     38 F         141.4278  141.0606  169.6404 F       1  UNL1       -0.1945
     39 F         138.9192  139.9546  168.4224 F       1  UNL1       -0.1945
@<TRIPOS>BOND
     1    10    11    1
     2    11    12   ar
     3    12    13   ar
     4    13    14   ar
     5    14    15   ar
     6    15     4    1
     7     4     5   ar
     8     5     6   ar
     9     6     7   ar
    10     7     3    1
    11     3     2    1
    12     2     1    1
    13     1    21    1
    14    21    22    1
    15    22    23    1
    16    23    24    1
    17    24    25    1
    18    25    26   ar
    19    26    27   ar
    20    27    28   ar
    21    28    29   ar
    22    29    36    1
    23    36    37    1
    24    36    38    1
    25    36    39    1
    26    29    30   ar
    27    30    31   ar
    28    31    32   ar
    29    32    33   ar
    30    33    34    1
    31    34    35    1
    32     7     8   ar
    33     8     9    1
    34    15    16   ar
    35    16    17   ar
    36    17    18   ar
    37    18    19   ar
    38    19    20   ar
    39    20    11   ar
    40    19    14   ar
    41     8     4   ar
    42    35    22    1
    43    33    25   ar
    44    31    27   ar
