@<TRIPOS>MOLECULE
*****
 27 29 0 0 0
SMALL
GASTEIGER

@<TRIPOS>ATOM
      1 C         141.9465  138.0852  164.4495 C.3     1  UNL1        0.0031
      2 C         142.4888  138.8115  165.6446 C.3     1  UNL1        0.0174
      3 C         143.6630  139.7328  165.4933 C.3     1  UNL1        0.0721
      4 N         144.2947  139.9276  164.1468 N.3     1  UNL1       -0.2724
      5 C         143.7524  139.2013  162.9517 C.3     1  UNL1        0.0721
      6 C         142.5783  138.2801  163.1030 C.3     1  UNL1        0.0174
      7 C         140.7725  137.1640  164.6008 C.3     1  UNL1        0.0049
      8 C         139.3973  137.7284  164.8015 C.3     1  UNL1        0.0294
      9 C         138.3235  139.9770  164.0661 C.ar    1  UNL1        0.1346
     10 C         137.7019  140.8334  163.0030 C.ar    1  UNL1        0.0366
     11 C         137.5322  140.2975  161.6123 C.ar    1  UNL1        0.0031
     12 C         137.9843  138.9053  161.2846 C.ar    1  UNL1       -0.0001
     13 C         138.6059  138.0490  162.3477 C.ar    1  UNL1       -0.0013
     14 C         138.7756  138.5848  163.7384 C.ar    1  UNL1        0.0118
     15 O         138.4932  140.5128  165.4568 O.3     1  UNL1       -0.4727
     16 C         139.7531  141.2340  165.8342 C.3     1  UNL1        0.2434
     17 F         141.2887  141.3466  163.7415 F       1  UNL1       -0.2302
     18 C         140.4925  142.0396  164.8073 C.3     1  UNL1        0.2403
     19 C         145.4687  140.8488  163.9955 C.3     1  UNL1        0.0768
     20 C         145.4538  141.9160  162.9415 C.3     1  UNL1        0.0437
     21 C         144.3317  142.9105  162.8970 C.ar    1  UNL1       -0.0206
     22 C         144.0846  143.8153  164.0675 C.ar    1  UNL1       -0.0019
     23 C         142.9625  144.8098  164.0231 C.ar    1  UNL1        0.0293
     24 C         142.0875  144.8994  162.8080 C.ar    1  UNL1        0.1401
     25 F         140.9654  145.8938  162.7635 F       1  UNL1       -0.2042
     26 C         142.3346  143.9945  161.6375 C.ar    1  UNL1        0.0293
     27 C         143.4567  143.0001  161.6820 C.ar    1  UNL1       -0.0019
@<TRIPOS>BOND
     1    17    18    1
     2    18    16    1
     3    16    15    1
     4    15     9    1
     5     9    10   ar
     6    10    11   ar
     7    11    12   ar
     8    12    13   ar
     9    13    14   ar
    10    14     8    1
    11     8     7    1
    12     7     1    1
    13     1     2    1
    14     2     3    1
    15     3     4    1
    16     4    19    1
    17    19    20    1
    18    20    21    1
    19    21    22   ar
    20    22    23   ar
    21    23    24   ar
    22    24    25    1
    23    24    26   ar
    24    26    27   ar
    25     4     5    1
    26     5     6    1
    27    14     9   ar
    28     6     1    1
    29    27    21   ar
@<TRIPOS>MOLECULE
*****
 27 29 0 0 0
SMALL
GASTEIGER

@<TRIPOS>ATOM
      1 C         139.0462  143.3596  164.9087 C.3     1  UNL1        0.0031
      2 C         139.9353  142.8375  165.9981 C.3     1  UNL1        0.0174
      3 C         139.8439  141.3999  166.4164 C.3     1  UNL1        0.0721
      4 N         138.8633  140.4844  165.7453 N.3     1  UNL1       -0.2724
      5 C         137.9742  141.0065  164.6559 C.3     1  UNL1        0.0721
      6 C         138.0655  142.4440  164.2376 C.3     1  UNL1        0.0174
      7 C         139.1375  144.7971  164.4903 C.3     1  UNL1        0.0049
      8 C         139.8023  145.1608  163.1958 C.3     1  UNL1        0.0294
      9 C         141.6446  144.0041  161.7750 C.ar    1  UNL1        0.1346
     10 C         143.0871  143.6599  161.5502 C.ar    1  UNL1        0.0366
     11 C         144.1300  144.1282  162.5213 C.ar    1  UNL1        0.0031
     12 C         143.7304  144.9407  163.7172 C.ar    1  UNL1       -0.0001
     13 C         142.2879  145.2848  163.9420 C.ar    1  UNL1       -0.0013
     14 C         141.2450  144.8165  162.9709 C.ar    1  UNL1        0.0118
     15 O         140.6016  143.5358  160.8039 O.3     1  UNL1       -0.4727
     16 C         139.8791  142.2436  161.0446 C.3     1  UNL1        0.2434
     17 F         140.9891  141.2337  163.1655 F       1  UNL1       -0.2302
     18 C         140.5813  141.1075  161.7274 C.3     1  UNL1        0.2403
     19 C         138.7720  139.0469  166.1637 C.3     1  UNL1        0.0768
     20 C         139.0675  137.9579  165.1753 C.3     1  UNL1        0.0437
     21 C         140.3291  138.0024  164.3652 C.ar    1  UNL1       -0.0206
     22 C         140.3097  137.5885  162.9236 C.ar    1  UNL1       -0.0019
     23 C         141.5713  137.6331  162.1134 C.ar    1  UNL1        0.0293
     24 C         142.8523  138.0915  162.7449 C.ar    1  UNL1        0.1401
     25 F         144.1140  138.1360  161.9348 F       1  UNL1       -0.2042
     26 C         142.8717  138.5054  164.1866 C.ar    1  UNL1        0.0293
     27 C         141.6101  138.4608  164.9967 C.ar    1  UNL1       -0.0019
@<TRIPOS>BOND
     1    17    18    1
     2    18    16    1
     3    16    15    1
     4    15     9    1
     5     9    10   ar
     6    10    11   ar
     7    11    12   ar
     8    12    13   ar
     9    13    14   ar
    10    14     8    1
    11     8     7    1
    12     7     1    1
    13     1     2    1
    14     2     3    1
    15     3     4    1
    16     4    19    1
    17    19    20    1
    18    20    21    1
    19    21    22   ar
    20    22    23   ar
    21    23    24   ar
    22    24    25    1
    23    24    26   ar
    24    26    27   ar
    25     4     5    1
    26     5     6    1
    27    14     9   ar
    28     6     1    1
    29    27    21   ar
@<TRIPOS>MOLECULE
*****
 27 29 0 0 0
SMALL
GASTEIGER

@<TRIPOS>ATOM
      1 C         140.3611  143.2294  165.7754 C.3     1  UNL1        0.0031
      2 C         141.3808  143.0981  164.6832 C.3     1  UNL1        0.0174
      3 C         142.3359  141.9415  164.6839 C.3     1  UNL1        0.0721
      4 N         142.2713  140.9161  165.7768 N.3     1  UNL1       -0.2724
      5 C         141.2517  141.0474  166.8690 C.3     1  UNL1        0.0721
      6 C         140.2966  142.2040  166.8684 C.3     1  UNL1        0.0174
      7 C         139.4060  144.3860  165.7748 C.3     1  UNL1        0.0049
      8 C         138.1440  144.3161  164.9670 C.3     1  UNL1        0.0294
      9 C         138.2360  143.6952  162.4459 C.ar    1  UNL1        0.1346
     10 C         138.1004  142.6767  161.3531 C.ar    1  UNL1        0.0366
     11 C         137.7374  141.2605  161.6887 C.ar    1  UNL1        0.0031
     12 C         137.5099  140.8628  163.1170 C.ar    1  UNL1       -0.0001
     13 C         137.6455  141.8814  164.2097 C.ar    1  UNL1       -0.0013
     14 C         138.0085  143.2976  163.8742 C.ar    1  UNL1        0.0118
     15 O         138.5990  145.1114  162.1104 O.3     1  UNL1       -0.4727
     16 C         140.0303  145.5548  162.1776 C.3     1  UNL1        0.2434
     17 F         142.4892  144.7598  161.9097 F       1  UNL1       -0.2302
     18 C         141.0805  144.8204  161.3980 C.3     1  UNL1        0.2403
     19 C         143.2264  139.7595  165.7774 C.3     1  UNL1        0.0768
     20 C         142.7322  138.3786  165.4630 C.3     1  UNL1        0.0437
     21 C         141.5679  138.1917  164.5358 C.ar    1  UNL1       -0.0206
     22 C         141.7661  138.2960  163.0526 C.ar    1  UNL1       -0.0019
     23 C         140.6018  138.1091  162.1255 C.ar    1  UNL1        0.0293
     24 C         139.2395  137.8179  162.6815 C.ar    1  UNL1        0.1401
     25 F         138.0752  137.6310  161.7544 F       1  UNL1       -0.2042
     26 C         139.0414  137.7136  164.1647 C.ar    1  UNL1        0.0293
     27 C         140.2056  137.9005  165.0919 C.ar    1  UNL1       -0.0019
@<TRIPOS>BOND
     1    17    18    1
     2    18    16    1
     3    16    15    1
     4    15     9    1
     5     9    10   ar
     6    10    11   ar
     7    11    12   ar
     8    12    13   ar
     9    13    14   ar
    10    14     8    1
    11     8     7    1
    12     7     1    1
    13     1     2    1
    14     2     3    1
    15     3     4    1
    16     4    19    1
    17    19    20    1
    18    20    21    1
    19    21    22   ar
    20    22    23   ar
    21    23    24   ar
    22    24    25    1
    23    24    26   ar
    24    26    27   ar
    25     4     5    1
    26     5     6    1
    27    14     9   ar
    28     6     1    1
    29    27    21   ar
@<TRIPOS>MOLECULE
*****
 27 29 0 0 0
SMALL
GASTEIGER

@<TRIPOS>ATOM
      1 C         138.4583  141.7823  164.1416 C.3     1  UNL1        0.0031
      2 C         138.2620  140.6541  165.1105 C.3     1  UNL1        0.0174
      3 C         138.6169  139.2523  164.7112 C.3     1  UNL1        0.0721
      4 N         139.1679  138.9789  163.3432 N.3     1  UNL1       -0.2724
      5 C         139.3642  140.1071  162.3744 C.3     1  UNL1        0.0721
      6 C         139.0094  141.5087  162.7735 C.3     1  UNL1        0.0174
      7 C         138.1035  143.1839  164.5408 C.3     1  UNL1        0.0049
      8 C         139.0856  144.0158  165.3111 C.3     1  UNL1        0.0294
      9 C         141.5404  143.1925  165.0961 C.ar    1  UNL1        0.1346
     10 C         142.7533  142.5513  165.7025 C.ar    1  UNL1        0.0366
     11 C         142.7243  142.0922  167.1302 C.ar    1  UNL1        0.0031
     12 C         141.4825  142.2742  167.9516 C.ar    1  UNL1       -0.0001
     13 C         140.2696  142.9154  167.3452 C.ar    1  UNL1       -0.0013
     14 C         140.2986  143.3746  165.9175 C.ar    1  UNL1        0.0118
     15 O         141.5693  143.6516  163.6684 O.3     1  UNL1       -0.4727
     16 C         142.1423  144.9943  163.3239 C.3     1  UNL1        0.2434
     17 F         144.2607  145.3409  164.7876 F       1  UNL1       -0.2302
     18 C         143.6194  145.2307  163.4360 C.3     1  UNL1        0.2403
     19 C         139.5228  137.5772  162.9440 C.3     1  UNL1        0.0768
     20 C         140.7701  136.9382  163.4785 C.3     1  UNL1        0.0437
     21 C         141.9930  137.7711  163.7252 C.ar    1  UNL1       -0.0206
     22 C         142.8204  138.2494  162.5691 C.ar    1  UNL1       -0.0019
     23 C         144.0433  139.0824  162.8158 C.ar    1  UNL1        0.0293
     24 C         144.4387  139.4369  164.2186 C.ar    1  UNL1        0.1401
     25 F         145.6616  140.2699  164.4654 F       1  UNL1       -0.2042
     26 C         143.6113  138.9586  165.3747 C.ar    1  UNL1        0.0293
     27 C         142.3885  138.1257  165.1280 C.ar    1  UNL1       -0.0019
@<TRIPOS>BOND
     1    17    18    1
     2    18    16    1
     3    16    15    1
     4    15     9    1
     5     9    10   ar
     6    10    11   ar
     7    11    12   ar
     8    12    13   ar
     9    13    14   ar
    10    14     8    1
    11     8     7    1
    12     7     1    1
    13     1     2    1
    14     2     3    1
    15     3     4    1
    16     4    19    1
    17    19    20    1
    18    20    21    1
    19    21    22   ar
    20    22    23   ar
    21    23    24   ar
    22    24    25    1
    23    24    26   ar
    24    26    27   ar
    25     4     5    1
    26     5     6    1
    27    14     9   ar
    28     6     1    1
    29    27    21   ar
@<TRIPOS>MOLECULE
*****
 27 29 0 0 0
SMALL
GASTEIGER

@<TRIPOS>ATOM
      1 C         140.0315  137.8712  164.5639 C.3     1  UNL1        0.0031
      2 C         141.3841  138.0969  165.1718 C.3     1  UNL1        0.0174
      3 C         142.5911  138.2223  164.2901 C.3     1  UNL1        0.0721
      4 N         142.4455  138.1220  162.8005 N.3     1  UNL1       -0.2724
      5 C         141.0929  137.8964  162.1927 C.3     1  UNL1        0.0721
      6 C         139.8859  137.7710  163.0743 C.3     1  UNL1        0.0174
      7 C         138.8244  137.7458  165.4456 C.3     1  UNL1        0.0049
      8 C         138.1863  138.9745  166.0227 C.3     1  UNL1        0.0294
      9 C         139.7368  140.6239  167.2976 C.ar    1  UNL1        0.1346
     10 C         140.5013  141.9135  167.3465 C.ar    1  UNL1        0.0366
     11 C         140.4798  142.8433  166.1697 C.ar    1  UNL1        0.0031
     12 C         139.6938  142.4835  164.9438 C.ar    1  UNL1       -0.0001
     13 C         138.9293  141.1939  164.8949 C.ar    1  UNL1       -0.0013
     14 C         138.9508  140.2641  166.0717 C.ar    1  UNL1        0.0118
     15 O         139.7584  139.6941  168.4744 O.3     1  UNL1       -0.4727
     16 C         140.7299  139.9237  169.5940 C.3     1  UNL1        0.2434
     17 F         142.6740  138.9908  168.1447 F       1  UNL1       -0.2302
     18 C         142.1400  139.4256  169.4773 C.3     1  UNL1        0.2403
     19 C         143.6525  138.2475  161.9189 C.3     1  UNL1        0.0768
     20 C         144.0620  139.5919  161.3946 C.3     1  UNL1        0.0437
     21 C         144.1168  140.7723  162.3187 C.ar    1  UNL1       -0.0206
     22 C         145.2889  140.9516  163.2374 C.ar    1  UNL1       -0.0019
     23 C         145.3438  142.1319  164.1614 C.ar    1  UNL1        0.0293
     24 C         144.2267  143.1329  164.1666 C.ar    1  UNL1        0.1401
     25 F         144.2816  144.3133  165.0907 F       1  UNL1       -0.2042
     26 C         143.0547  142.9536  163.2479 C.ar    1  UNL1        0.0293
     27 C         142.9997  141.7733  162.3239 C.ar    1  UNL1       -0.0019
@<TRIPOS>BOND
     1    17    18    1
     2    18    16    1
     3    16    15    1
     4    15     9    1
     5     9    10   ar
     6    10    11   ar
     7    11    12   ar
     8    12    13   ar
     9    13    14   ar
    10    14     8    1
    11     8     7    1
    12     7     1    1
    13     1     2    1
    14     2     3    1
    15     3     4    1
    16     4    19    1
    17    19    20    1
    18    20    21    1
    19    21    22   ar
    20    22    23   ar
    21    23    24   ar
    22    24    25    1
    23    24    26   ar
    24    26    27   ar
    25     4     5    1
    26     5     6    1
    27    14     9   ar
    28     6     1    1
    29    27    21   ar
@<TRIPOS>MOLECULE
*****
 27 29 0 0 0
SMALL
GASTEIGER

@<TRIPOS>ATOM
      1 C         141.8634  138.2960  163.6264 C.3     1  UNL1        0.0031
      2 C         142.4872  138.5005  164.9751 C.3     1  UNL1        0.0174
      3 C         143.4906  139.5968  165.1788 C.3     1  UNL1        0.0721
      4 N         143.8701  140.4885  164.0340 N.3     1  UNL1       -0.2724
      5 C         143.2462  140.2840  162.6853 C.3     1  UNL1        0.0721
      6 C         142.2429  139.1878  162.4815 C.3     1  UNL1        0.0174
      7 C         140.8600  137.1998  163.4225 C.3     1  UNL1        0.0049
      8 C         139.4209  137.4241  163.7810 C.3     1  UNL1        0.0294
      9 C         138.6613  139.7023  164.7725 C.ar    1  UNL1        0.1346
     10 C         138.0455  141.0578  164.5900 C.ar    1  UNL1        0.0366
     11 C         137.5735  141.4908  163.2337 C.ar    1  UNL1        0.0031
     12 C         137.7172  140.5682  162.0597 C.ar    1  UNL1       -0.0001
     13 C         138.3330  139.2127  162.2422 C.ar    1  UNL1       -0.0013
     14 C         138.8050  138.7797  163.5986 C.ar    1  UNL1        0.0118
     15 O         139.1333  139.2694  166.1288 O.3     1  UNL1       -0.4727
     16 C         138.1476  139.0968  167.2462 C.3     1  UNL1        0.2434
     17 F         137.6398  136.6519  166.5290 F       1  UNL1       -0.2302
     18 C         137.2541  137.8925  167.2789 C.3     1  UNL1        0.2403
     19 C         144.8734  141.5847  164.2378 C.3     1  UNL1        0.0768
     20 C         144.4749  142.8434  164.9496 C.3     1  UNL1        0.0437
     21 C         143.1404  143.4706  164.6738 C.ar    1  UNL1       -0.0206
     22 C         141.9084  142.9373  165.3429 C.ar    1  UNL1       -0.0019
     23 C         140.5740  143.5645  165.0672 C.ar    1  UNL1        0.0293
     24 C         140.4717  144.7249  164.1222 C.ar    1  UNL1        0.1401
     25 F         139.1372  145.3520  163.8464 F       1  UNL1       -0.2042
     26 C         141.7037  145.2581  163.4531 C.ar    1  UNL1        0.0293
     27 C         143.0381  144.6310  163.7289 C.ar    1  UNL1       -0.0019
@<TRIPOS>BOND
     1    17    18    1
     2    18    16    1
     3    16    15    1
     4    15     9    1
     5     9    10   ar
     6    10    11   ar
     7    11    12   ar
     8    12    13   ar
     9    13    14   ar
    10    14     8    1
    11     8     7    1
    12     7     1    1
    13     1     2    1
    14     2     3    1
    15     3     4    1
    16     4    19    1
    17    19    20    1
    18    20    21    1
    19    21    22   ar
    20    22    23   ar
    21    23    24   ar
    22    24    25    1
    23    24    26   ar
    24    26    27   ar
    25     4     5    1
    26     5     6    1
    27    14     9   ar
    28     6     1    1
    29    27    21   ar
@<TRIPOS>MOLECULE
*****
 27 29 0 0 0
SMALL
GASTEIGER

@<TRIPOS>ATOM
      1 C         142.1119  143.7235  163.8164 C.3     1  UNL1        0.0031
      2 C         140.9391  144.0511  164.6924 C.3     1  UNL1        0.0174
      3 C         139.5485  143.7170  164.2399 C.3     1  UNL1        0.0721
      4 N         139.3307  143.0553  162.9115 N.3     1  UNL1       -0.2724
      5 C         140.5035  142.7277  162.0355 C.3     1  UNL1        0.0721
      6 C         141.8940  143.0618  162.4879 C.3     1  UNL1        0.0174
      7 C         143.5024  144.0576  164.2688 C.3     1  UNL1        0.0049
      8 C         144.1998  143.1766  165.2625 C.3     1  UNL1        0.0294
      9 C         142.8587  141.3576  166.5443 C.ar    1  UNL1        0.1346
     10 C         142.4358  139.9276  166.7053 C.ar    1  UNL1        0.0366
     11 C         142.9309  138.8864  165.7457 C.ar    1  UNL1        0.0031
     12 C         143.8489  139.2753  164.6251 C.ar    1  UNL1       -0.0001
     13 C         144.2719  140.7053  164.4640 C.ar    1  UNL1       -0.0013
     14 C         143.7768  141.7465  165.4236 C.ar    1  UNL1        0.0118
     15 O         142.3636  142.3988  167.5039 O.3     1  UNL1       -0.4727
     16 C         142.2040  142.0639  168.9572 C.3     1  UNL1        0.2434
     17 F         144.6518  142.5997  169.6438 F       1  UNL1       -0.2302
     18 C         143.4120  141.7691  169.7961 C.3     1  UNL1        0.2403
     19 C         137.9402  142.7212  162.4591 C.3     1  UNL1        0.0768
     20 C         137.1926  141.5919  163.1040 C.3     1  UNL1        0.0437
     21 C         137.9358  140.3869  163.5997 C.ar    1  UNL1       -0.0206
     22 C         138.3933  139.3370  162.6310 C.ar    1  UNL1       -0.0019
     23 C         139.1364  138.1320  163.1266 C.ar    1  UNL1        0.0293
     24 C         139.4220  137.9768  164.5909 C.ar    1  UNL1        0.1401
     25 F         140.1651  136.7718  165.0866 F       1  UNL1       -0.2042
     26 C         138.9645  139.0267  165.5596 C.ar    1  UNL1        0.0293
     27 C         138.2213  140.2317  165.0640 C.ar    1  UNL1       -0.0019
@<TRIPOS>BOND
     1    17    18    1
     2    18    16    1
     3    16    15    1
     4    15     9    1
     5     9    10   ar
     6    10    11   ar
     7    11    12   ar
     8    12    13   ar
     9    13    14   ar
    10    14     8    1
    11     8     7    1
    12     7     1    1
    13     1     2    1
    14     2     3    1
    15     3     4    1
    16     4    19    1
    17    19    20    1
    18    20    21    1
    19    21    22   ar
    20    22    23   ar
    21    23    24   ar
    22    24    25    1
    23    24    26   ar
    24    26    27   ar
    25     4     5    1
    26     5     6    1
    27    14     9   ar
    28     6     1    1
    29    27    21   ar
@<TRIPOS>MOLECULE
*****
 27 29 0 0 0
SMALL
GASTEIGER

@<TRIPOS>ATOM
      1 C         138.8726  141.7306  164.2576 C.3     1  UNL1        0.0031
      2 C         139.0489  142.8450  165.2461 C.3     1  UNL1        0.0174
      3 C         139.9145  144.0213  164.9039 C.3     1  UNL1        0.0721
      4 N         140.6038  144.0832  163.5731 N.3     1  UNL1       -0.2724
      5 C         140.4276  142.9689  162.5846 C.3     1  UNL1        0.0721
      6 C         139.5620  141.7926  162.9268 C.3     1  UNL1        0.0174
      7 C         138.0071  140.5544  164.5998 C.3     1  UNL1        0.0049
      8 C         138.4563  139.5695  165.6381 C.3     1  UNL1        0.0294
      9 C         140.5399  138.2538  164.8149 C.ar    1  UNL1        0.1346
     10 C         141.9945  137.9114  164.9441 C.ar    1  UNL1        0.0366
     11 C         142.8203  138.5422  166.0259 C.ar    1  UNL1        0.0031
     12 C         142.1914  139.5154  166.9784 C.ar    1  UNL1       -0.0001
     13 C         140.7368  139.8578  166.8491 C.ar    1  UNL1       -0.0013
     14 C         139.9110  139.2270  165.7674 C.ar    1  UNL1        0.0118
     15 O         139.7141  137.6230  163.7331 O.3     1  UNL1       -0.4727
     16 C         139.8389  138.1034  162.3177 C.3     1  UNL1        0.2434
     17 F         137.4141  138.9105  161.8495 F       1  UNL1       -0.2302
     18 C         138.6310  138.1408  161.4291 C.3     1  UNL1        0.2403
     19 C         141.4694  145.2595  163.2309 C.3     1  UNL1        0.0768
     20 C         142.9389  145.2214  163.5293 C.3     1  UNL1        0.0437
     21 C         143.6391  143.9037  163.6826 C.ar    1  UNL1       -0.0206
     22 C         143.5124  143.1315  164.9624 C.ar    1  UNL1       -0.0019
     23 C         144.2126  141.8139  165.1158 C.ar    1  UNL1        0.0293
     24 C         145.0395  141.2684  163.9894 C.ar    1  UNL1        0.1401
     25 F         145.7397  139.9507  164.1428 F       1  UNL1       -0.2042
     26 C         145.1662  142.0406  162.7097 C.ar    1  UNL1        0.0293
     27 C         144.4660  143.3582  162.5563 C.ar    1  UNL1       -0.0019
@<TRIPOS>BOND
     1    17    18    1
     2    18    16    1
     3    16    15    1
     4    15     9    1
     5     9    10   ar
     6    10    11   ar
     7    11    12   ar
     8    12    13   ar
     9    13    14   ar
    10    14     8    1
    11     8     7    1
    12     7     1    1
    13     1     2    1
    14     2     3    1
    15     3     4    1
    16     4    19    1
    17    19    20    1
    18    20    21    1
    19    21    22   ar
    20    22    23   ar
    21    23    24   ar
    22    24    25    1
    23    24    26   ar
    24    26    27   ar
    25     4     5    1
    26     5     6    1
    27    14     9   ar
    28     6     1    1
    29    27    21   ar
@<TRIPOS>MOLECULE
*****
 27 29 0 0 0
SMALL
GASTEIGER

@<TRIPOS>ATOM
      1 C         137.9152  142.8882  163.4264 C.3     1  UNL1        0.0031
      2 C         138.0710  142.7771  161.9387 C.3     1  UNL1        0.0174
      3 C         138.0836  141.4272  161.2846 C.3     1  UNL1        0.0721
      4 N         137.9402  140.1885  162.1182 N.3     1  UNL1       -0.2724
      5 C         137.7844  140.2996  163.6060 C.3     1  UNL1        0.0721
      6 C         137.7718  141.6494  164.2601 C.3     1  UNL1        0.0174
      7 C         137.9027  144.2379  164.0805 C.3     1  UNL1        0.0049
      8 C         138.9876  144.6138  165.0457 C.3     1  UNL1        0.0294
      9 C         141.0708  143.1145  165.4487 C.ar    1  UNL1        0.1346
     10 C         142.4978  142.7648  165.1463 C.ar    1  UNL1        0.0366
     11 C         143.2686  143.5649  164.1384 C.ar    1  UNL1        0.0031
     12 C         142.6124  144.7145  163.4329 C.ar    1  UNL1       -0.0001
     13 C         141.1855  145.0641  163.7354 C.ar    1  UNL1       -0.0013
     14 C         140.4147  144.2641  164.7432 C.ar    1  UNL1        0.0118
     15 O         140.3000  142.3144  166.4566 O.3     1  UNL1       -0.4727
     16 C         140.5206  140.8349  166.5671 C.3     1  UNL1        0.2434
     17 F         138.6660  139.0163  166.6233 F       1  UNL1       -0.2302
     18 C         139.5545  139.9883  167.3416 C.3     1  UNL1        0.2403
     19 C         137.9528  138.8387  161.4642 C.3     1  UNL1        0.0768
     20 C         139.2466  138.0984  161.2967 C.3     1  UNL1        0.0437
     21 C         140.3058  138.1906  162.3548 C.ar    1  UNL1       -0.0206
     22 C         141.4597  139.1331  162.1808 C.ar    1  UNL1       -0.0019
     23 C         142.5189  139.2254  163.2389 C.ar    1  UNL1        0.0293
     24 C         142.4243  138.3750  164.4709 C.ar    1  UNL1        0.1401
     25 F         143.4835  138.4672  165.5290 F       1  UNL1       -0.2042
     26 C         141.2704  137.4325  164.6449 C.ar    1  UNL1        0.0293
     27 C         140.2112  137.3403  163.5869 C.ar    1  UNL1       -0.0019
@<TRIPOS>BOND
     1    17    18    1
     2    18    16    1
     3    16    15    1
     4    15     9    1
     5     9    10   ar
     6    10    11   ar
     7    11    12   ar
     8    12    13   ar
     9    13    14   ar
    10    14     8    1
    11     8     7    1
    12     7     1    1
    13     1     2    1
    14     2     3    1
    15     3     4    1
    16     4    19    1
    17    19    20    1
    18    20    21    1
    19    21    22   ar
    20    22    23   ar
    21    23    24   ar
    22    24    25    1
    23    24    26   ar
    24    26    27   ar
    25     4     5    1
    26     5     6    1
    27    14     9   ar
    28     6     1    1
    29    27    21   ar
