@<TRIPOS>MOLECULE
*****
 36 38 0 0 0
SMALL
GASTEIGER

@<TRIPOS>ATOM
      1 C         139.8915  144.3125  160.4549 C.ar    1  UNL1        0.1629
      2 C         140.3633  143.9821  159.0699 C.ar    1  UNL1        0.1398
      3 C         139.9042  142.7197  158.4024 C.ar    1  UNL1        0.0246
      4 C         138.9733  141.7877  159.1198 C.ar    1  UNL1        0.0386
      5 C         138.5015  142.1181  160.5048 C.ar    1  UNL1        0.1461
      6 C         138.9607  143.3804  161.1724 C.ar    1  UNL1        0.1226
      7 C         138.4888  143.7108  162.5574 C.2     1  UNL1        0.2550
      8 O         137.3208  144.6314  162.7522 O.2     1  UNL1       -0.2697
      9 N         139.1852  143.1205  163.7477 N.am    1  UNL1       -0.2750
     10 C         140.3471  142.1923  163.9443 C.3     1  UNL1        0.1014
     11 C         140.1699  142.2856  165.4309 C.3     1  UNL1        0.0821
     12 C         139.0082  143.2137  165.2342 C.3     1  UNL1        0.1014
     13 C         140.8663  141.6953  166.6211 C.ar    1  UNL1        0.0893
     14 N         140.1446  140.7226  167.5061 N.ar    1  UNL1       -0.2459
     15 C         140.8409  140.1323  168.6963 C.ar    1  UNL1        0.1024
     16 C         142.2590  140.5146  169.0015 C.ar    1  UNL1        0.0927
     17 C         142.9806  141.4873  168.1166 C.ar    1  UNL1        0.0363
     18 C         142.2842  142.0776  166.9264 C.ar    1  UNL1        0.1536
     19 F         143.0059  143.0503  166.0414 F       1  UNL1       -0.2029
     20 C         142.9553  139.9243  170.1918 C.3     1  UNL1        0.4201
     21 F         143.6516  139.3340  171.3820 F       1  UNL1       -0.1658
     22 F         143.8396  141.1331  170.2739 F       1  UNL1       -0.1658
     23 F         142.0709  138.7155  170.1096 F       1  UNL1       -0.1658
     24 S         141.2942  144.9141  158.3524 S.O2    1  UNL1        0.0133
     25 C         142.2250  145.8461  157.6349 C.3     1  UNL1        0.1817
     26 O         140.1208  145.5866  157.7036 O.2     1  UNL1       -0.1685
     27 O         142.4676  144.2417  159.0011 O.2     1  UNL1       -0.1685
     28 C         141.3461  145.5116  162.2427 C.3     1  UNL1        0.2525
     29 O         140.3506  145.5748  161.1225 O.3     1  UNL1       -0.4699
     30 O         137.5706  141.1860  161.2224 O.3     1  UNL1       -0.4701
     31 C         138.1074  139.9499  161.8809 C.3     1  UNL1        0.2600
     32 C         138.7001  138.8529  161.0471 C.3     1  UNL1        0.0566
     33 C         138.0514  139.8106  163.3735 C.3     1  UNL1        0.4340
     34 F         137.9954  139.6714  164.8659 F       1  UNL1       -0.1664
     35 F         139.0773  138.7182  163.3100 F       1  UNL1       -0.1664
     36 F         137.0255  140.9031  163.4369 F       1  UNL1       -0.1664
@<TRIPOS>BOND
     1    28    29    1
     2    29     1    1
     3     1     2   ar
     4     2    24    1
     5    24    25    1
     6    24    26    2
     7    24    27    2
     8     2     3   ar
     9     3     4   ar
    10     4     5   ar
    11     5    30    1
    12    30    31    1
    13    31    32    1
    14    31    33    1
    15    33    34    1
    16    33    35    1
    17    33    36    1
    18     5     6   ar
    19     6     7    1
    20     7     8    2
    21     7     9   am
    22     9    10    1
    23    10    11    1
    24    11    13    1
    25    13    14   ar
    26    14    15   ar
    27    15    16   ar
    28    16    20    1
    29    20    21    1
    30    20    22    1
    31    20    23    1
    32    16    17   ar
    33    17    18   ar
    34    18    19    1
    35    11    12    1
    36     6     1   ar
    37    12     9    1
    38    18    13   ar
@<TRIPOS>MOLECULE
*****
 36 38 0 0 0
SMALL
GASTEIGER

@<TRIPOS>ATOM
      1 C         141.7487  143.0158  159.5977 C.ar    1  UNL1        0.1629
      2 C         141.6018  142.0550  158.4553 C.ar    1  UNL1        0.1398
      3 C         140.2589  141.4670  158.1377 C.ar    1  UNL1        0.0246
      4 C         139.0629  141.8399  158.9626 C.ar    1  UNL1        0.0386
      5 C         139.2098  142.8007  160.1050 C.ar    1  UNL1        0.1461
      6 C         140.5527  143.3887  160.4226 C.ar    1  UNL1        0.1226
      7 C         140.6996  144.3495  161.5651 C.2     1  UNL1        0.2550
      8 O         140.6180  145.8267  161.3179 O.2     1  UNL1       -0.2697
      9 N         140.9280  143.8331  162.9548 N.am    1  UNL1       -0.2750
     10 C         141.0628  142.4725  163.5719 C.3     1  UNL1        0.1014
     11 C         141.2509  143.1027  164.9200 C.3     1  UNL1        0.0821
     12 C         141.1161  144.4631  164.3029 C.3     1  UNL1        0.1014
     13 C         141.4793  142.5863  166.3097 C.ar    1  UNL1        0.0893
     14 N         140.3114  142.1941  167.1654 N.ar    1  UNL1       -0.2459
     15 C         140.5398  141.6777  168.5551 C.ar    1  UNL1        0.1024
     16 C         141.9361  141.5534  169.0889 C.ar    1  UNL1        0.0927
     17 C         143.1039  141.9455  168.2332 C.ar    1  UNL1        0.0363
     18 C         142.8755  142.4620  166.8436 C.ar    1  UNL1        0.1536
     19 F         144.0435  142.8541  165.9878 F       1  UNL1       -0.2029
     20 C         142.1645  141.0369  170.4786 C.3     1  UNL1        0.4201
     21 F         142.3929  140.5205  171.8682 F       1  UNL1       -0.1658
     22 F         140.6981  141.1648  170.7671 F       1  UNL1       -0.1658
     23 F         143.6309  140.9090  170.1901 F       1  UNL1       -0.1658
     24 S         142.7979  141.6821  157.6303 S.O2    1  UNL1        0.0133
     25 C         143.9939  141.3093  156.8054 C.3     1  UNL1        0.1817
     26 O         142.5453  142.8573  156.7330 O.2     1  UNL1       -0.1685
     27 O         143.0505  140.5070  158.5276 O.2     1  UNL1       -0.1685
     28 C         143.9706  142.9547  160.9429 C.3     1  UNL1        0.2525
     29 O         143.0917  143.6038  159.9153 O.3     1  UNL1       -0.4699
     30 O         138.0137  143.1736  160.9300 O.3     1  UNL1       -0.4701
     31 C         137.7514  142.4728  162.2300 C.3     1  UNL1        0.2600
     32 C         137.6467  140.9770  162.2680 C.3     1  UNL1        0.0566
     33 C         137.5937  143.2680  163.4922 C.3     1  UNL1        0.4340
     34 F         137.4360  144.0631  164.7543 F       1  UNL1       -0.1664
     35 F         137.5475  141.9969  164.2872 F       1  UNL1       -0.1664
     36 F         137.6399  144.5391  162.6972 F       1  UNL1       -0.1664
@<TRIPOS>BOND
     1    28    29    1
     2    29     1    1
     3     1     2   ar
     4     2    24    1
     5    24    25    1
     6    24    26    2
     7    24    27    2
     8     2     3   ar
     9     3     4   ar
    10     4     5   ar
    11     5    30    1
    12    30    31    1
    13    31    32    1
    14    31    33    1
    15    33    34    1
    16    33    35    1
    17    33    36    1
    18     5     6   ar
    19     6     7    1
    20     7     8    2
    21     7     9   am
    22     9    10    1
    23    10    11    1
    24    11    13    1
    25    13    14   ar
    26    14    15   ar
    27    15    16   ar
    28    16    20    1
    29    20    21    1
    30    20    22    1
    31    20    23    1
    32    16    17   ar
    33    17    18   ar
    34    18    19    1
    35    11    12    1
    36     6     1   ar
    37    12     9    1
    38    18    13   ar
@<TRIPOS>MOLECULE
*****
 36 38 0 0 0
SMALL
GASTEIGER

@<TRIPOS>ATOM
      1 C         141.4403  140.9190  159.1310 C.ar    1  UNL1        0.1629
      2 C         142.6479  140.5455  158.3237 C.ar    1  UNL1        0.1398
      3 C         143.8525  141.4393  158.3185 C.ar    1  UNL1        0.0246
      4 C         143.8494  142.7067  159.1208 C.ar    1  UNL1        0.0386
      5 C         142.6418  143.0803  159.9281 C.ar    1  UNL1        0.1461
      6 C         141.4372  142.1865  159.9332 C.ar    1  UNL1        0.1226
      7 C         140.2294  142.5601  160.7407 C.2     1  UNL1        0.2550
      8 O         139.1144  143.3376  160.1065 O.2     1  UNL1       -0.2697
      9 N         140.1368  142.1562  162.1823 N.am    1  UNL1       -0.2750
     10 C         141.0195  141.4007  163.1310 C.3     1  UNL1        0.1014
     11 C         140.0057  141.5850  164.2211 C.3     1  UNL1        0.0821
     12 C         139.1231  142.3405  163.2724 C.3     1  UNL1        0.1014
     13 C         139.9131  141.1812  165.6627 C.ar    1  UNL1        0.0893
     14 N         140.6249  141.9813  166.7130 N.ar    1  UNL1       -0.2459
     15 C         140.5323  141.5775  168.1546 C.ar    1  UNL1        0.1024
     16 C         139.7278  140.3734  168.5459 C.ar    1  UNL1        0.0927
     17 C         139.0160  139.5733  167.4957 C.ar    1  UNL1        0.0363
     18 C         139.1086  139.9772  166.0540 C.ar    1  UNL1        0.1536
     19 F         138.3968  139.1770  165.0037 F       1  UNL1       -0.2029
     20 C         139.6351  139.9695  169.9876 C.3     1  UNL1        0.4201
     21 F         139.5425  139.5656  171.4292 F       1  UNL1       -0.1658
     22 F         141.0110  139.3771  169.9100 F       1  UNL1       -0.1658
     23 F         138.2593  140.5619  170.0651 F       1  UNL1       -0.1658
     24 S         142.6511  139.2780  157.5214 S.O2    1  UNL1        0.0133
     25 C         142.6542  138.0106  156.7191 C.3     1  UNL1        0.1817
     26 O         143.3075  138.5579  158.6617 O.2     1  UNL1       -0.1685
     27 O         141.9946  139.9981  156.3810 O.2     1  UNL1       -0.1685
     28 C         140.0915  138.9669  160.1893 C.3     1  UNL1        0.2525
     29 O         140.2357  140.0252  159.1361 O.3     1  UNL1       -0.4699
     30 O         142.6386  144.3477  160.7304 O.3     1  UNL1       -0.4701
     31 C         143.0877  144.3306  162.1615 C.3     1  UNL1        0.2600
     32 C         144.4111  143.7254  162.5251 C.3     1  UNL1        0.0566
     33 C         142.2132  144.9186  163.2291 C.3     1  UNL1        0.4340
     34 F         141.3388  145.5065  164.2966 F       1  UNL1       -0.1664
     35 F         143.2205  144.5277  164.2695 F       1  UNL1       -0.1664
     36 F         141.2059  145.3095  162.1887 F       1  UNL1       -0.1664
@<TRIPOS>BOND
     1    28    29    1
     2    29     1    1
     3     1     2   ar
     4     2    24    1
     5    24    25    1
     6    24    26    2
     7    24    27    2
     8     2     3   ar
     9     3     4   ar
    10     4     5   ar
    11     5    30    1
    12    30    31    1
    13    31    32    1
    14    31    33    1
    15    33    34    1
    16    33    35    1
    17    33    36    1
    18     5     6   ar
    19     6     7    1
    20     7     8    2
    21     7     9   am
    22     9    10    1
    23    10    11    1
    24    11    13    1
    25    13    14   ar
    26    14    15   ar
    27    15    16   ar
    28    16    20    1
    29    20    21    1
    30    20    22    1
    31    20    23    1
    32    16    17   ar
    33    17    18   ar
    34    18    19    1
    35    11    12    1
    36     6     1   ar
    37    12     9    1
    38    18    13   ar
@<TRIPOS>MOLECULE
*****
 36 38 0 0 0
SMALL
GASTEIGER

@<TRIPOS>ATOM
      1 C         143.5452  140.1411  159.9469 C.ar    1  UNL1        0.1629
      2 C         142.6672  139.9449  158.7466 C.ar    1  UNL1        0.1398
      3 C         141.8689  141.0938  158.2055 C.ar    1  UNL1        0.0246
      4 C         141.9485  142.4388  158.8646 C.ar    1  UNL1        0.0386
      5 C         142.8265  142.6350  160.0649 C.ar    1  UNL1        0.1461
      6 C         143.6248  141.4862  160.6060 C.ar    1  UNL1        0.1226
      7 C         144.5028  141.6824  161.8063 C.2     1  UNL1        0.2550
      8 O         145.9422  142.0651  161.6281 O.2     1  UNL1       -0.2697
      9 N         143.9414  141.4961  163.1847 N.am    1  UNL1       -0.2750
     10 C         142.5983  141.1279  163.7421 C.3     1  UNL1        0.1014
     11 C         143.1474  141.2325  165.1341 C.3     1  UNL1        0.0821
     12 C         144.4904  141.6006  164.5767 C.3     1  UNL1        0.1014
     13 C         142.5860  141.0461  166.5125 C.ar    1  UNL1        0.0893
     14 N         141.8005  142.1491  167.1579 N.ar    1  UNL1       -0.2459
     15 C         141.2391  141.9627  168.5363 C.ar    1  UNL1        0.1024
     16 C         141.4631  140.6733  169.2693 C.ar    1  UNL1        0.0927
     17 C         142.2485  139.5703  168.6240 C.ar    1  UNL1        0.0363
     18 C         142.8100  139.7567  167.2455 C.ar    1  UNL1        0.1536
     19 F         143.5955  138.6537  166.6002 F       1  UNL1       -0.2029
     20 C         140.9017  140.4869  170.6478 C.3     1  UNL1        0.4201
     21 F         140.3402  140.3005  172.0262 F       1  UNL1       -0.1658
     22 F         142.2926  140.4028  171.2029 F       1  UNL1       -0.1658
     23 F         139.5107  140.5710  170.0926 F       1  UNL1       -0.1658
     24 S         142.5876  138.5998  158.0875 S.O2    1  UNL1        0.0133
     25 C         142.5080  137.2548  157.4283 C.3     1  UNL1        0.1817
     26 O         143.7803  138.9422  157.2448 O.2     1  UNL1       -0.1685
     27 O         141.3949  138.2575  158.9301 O.2     1  UNL1       -0.1685
     28 C         143.7754  138.1310  161.5766 C.3     1  UNL1        0.2525
     29 O         144.3436  138.9923  160.4880 O.3     1  UNL1       -0.4699
     30 O         142.9061  143.9801  160.7241 O.3     1  UNL1       -0.4701
     31 C         142.0808  144.2680  161.9430 C.3     1  UNL1        0.2600
     32 C         140.6157  143.9462  161.9500 C.3     1  UNL1        0.0566
     33 C         142.7205  144.8776  163.1551 C.3     1  UNL1        0.4340
     34 F         143.3603  145.4872  164.3672 F       1  UNL1       -0.1664
     35 F         144.0629  144.7871  162.4921 F       1  UNL1       -0.1664
     36 F         141.3781  144.9681  163.8182 F       1  UNL1       -0.1664
@<TRIPOS>BOND
     1    28    29    1
     2    29     1    1
     3     1     2   ar
     4     2    24    1
     5    24    25    1
     6    24    26    2
     7    24    27    2
     8     2     3   ar
     9     3     4   ar
    10     4     5   ar
    11     5    30    1
    12    30    31    1
    13    31    32    1
    14    31    33    1
    15    33    34    1
    16    33    35    1
    17    33    36    1
    18     5     6   ar
    19     6     7    1
    20     7     8    2
    21     7     9   am
    22     9    10    1
    23    10    11    1
    24    11    13    1
    25    13    14   ar
    26    14    15   ar
    27    15    16   ar
    28    16    20    1
    29    20    21    1
    30    20    22    1
    31    20    23    1
    32    16    17   ar
    33    17    18   ar
    34    18    19    1
    35    11    12    1
    36     6     1   ar
    37    12     9    1
    38    18    13   ar
@<TRIPOS>MOLECULE
*****
 36 38 0 0 0
SMALL
GASTEIGER

@<TRIPOS>ATOM
      1 C         141.3014  142.2458  159.4015 C.ar    1  UNL1        0.1629
      2 C         142.0387  143.1859  158.4945 C.ar    1  UNL1        0.1398
      3 C         141.7581  144.6583  158.5522 C.ar    1  UNL1        0.0246
      4 C         140.7402  145.1906  159.5169 C.ar    1  UNL1        0.0386
      5 C         140.0029  144.2505  160.4238 C.ar    1  UNL1        0.1461
      6 C         140.2835  142.7781  160.3661 C.ar    1  UNL1        0.1226
      7 C         139.5462  141.8380  161.2731 C.2     1  UNL1        0.2550
      8 O         138.2644  141.2065  160.8169 O.2     1  UNL1       -0.2697
      9 N         140.0906  141.5295  162.6363 N.am    1  UNL1       -0.2750
     10 C         141.3000  141.9530  163.4162 C.3     1  UNL1        0.1014
     11 C         140.8607  141.0932  164.5642 C.3     1  UNL1        0.0821
     12 C         139.6514  140.6697  163.7843 C.3     1  UNL1        0.1014
     13 C         141.4052  140.7846  165.9274 C.ar    1  UNL1        0.0893
     14 N         142.1964  139.5303  166.1527 N.ar    1  UNL1       -0.2459
     15 C         142.7409  139.2218  167.5159 C.ar    1  UNL1        0.1024
     16 C         142.4942  140.1676  168.6538 C.ar    1  UNL1        0.0927
     17 C         141.7029  141.4218  168.4284 C.ar    1  UNL1        0.0363
     18 C         141.1584  141.7303  167.0652 C.ar    1  UNL1        0.1536
     19 F         140.3672  142.9846  166.8399 F       1  UNL1       -0.2029
     20 C         143.0387  139.8591  170.0170 C.3     1  UNL1        0.4201
     21 F         143.5832  139.5505  171.3802 F       1  UNL1       -0.1658
     22 F         143.6551  141.2251  170.0799 F       1  UNL1       -0.1658
     23 F         142.4222  138.4930  169.9540 F       1  UNL1       -0.1658
     24 S         143.0566  142.6537  157.5298 S.O2    1  UNL1        0.0133
     25 C         144.0745  142.1214  156.5652 C.3     1  UNL1        0.1817
     26 O         144.1406  142.9033  158.5361 O.2     1  UNL1       -0.1685
     27 O         141.9726  142.4041  156.5236 O.2     1  UNL1       -0.1685
     28 C         142.6144  140.1706  160.2497 C.3     1  UNL1        0.2525
     29 O         141.5820  140.7734  159.3438 O.3     1  UNL1       -0.4699
     30 O         138.9850  144.7828  161.3885 O.3     1  UNL1       -0.4701
     31 C         139.3399  144.9514  162.8361 C.3     1  UNL1        0.2600
     32 C         140.6742  145.5189  163.2200 C.3     1  UNL1        0.0566
     33 C         138.3604  144.5524  163.8998 C.3     1  UNL1        0.4340
     34 F         137.3809  144.1535  164.9635 F       1  UNL1       -0.1664
     35 F         137.4737  143.9430  162.8547 F       1  UNL1       -0.1664
     36 F         139.2470  145.1619  164.9450 F       1  UNL1       -0.1664
@<TRIPOS>BOND
     1    28    29    1
     2    29     1    1
     3     1     2   ar
     4     2    24    1
     5    24    25    1
     6    24    26    2
     7    24    27    2
     8     2     3   ar
     9     3     4   ar
    10     4     5   ar
    11     5    30    1
    12    30    31    1
    13    31    32    1
    14    31    33    1
    15    33    34    1
    16    33    35    1
    17    33    36    1
    18     5     6   ar
    19     6     7    1
    20     7     8    2
    21     7     9   am
    22     9    10    1
    23    10    11    1
    24    11    13    1
    25    13    14   ar
    26    14    15   ar
    27    15    16   ar
    28    16    20    1
    29    20    21    1
    30    20    22    1
    31    20    23    1
    32    16    17   ar
    33    17    18   ar
    34    18    19    1
    35    11    12    1
    36     6     1   ar
    37    12     9    1
    38    18    13   ar
@<TRIPOS>MOLECULE
*****
 36 38 0 0 0
SMALL
GASTEIGER

@<TRIPOS>ATOM
      1 C         140.1656  140.2211  159.3826 C.ar    1  UNL1        0.1629
      2 C         140.7784  141.0260  158.2751 C.ar    1  UNL1        0.1398
      3 C         140.4256  142.4753  158.1173 C.ar    1  UNL1        0.0246
      4 C         139.4600  143.1198  159.0671 C.ar    1  UNL1        0.0386
      5 C         138.8472  142.3150  160.1746 C.ar    1  UNL1        0.1461
      6 C         139.2000  140.8656  160.3323 C.ar    1  UNL1        0.1226
      7 C         138.5871  140.0608  161.4399 C.2     1  UNL1        0.2550
      8 O         137.2990  139.3275  161.2100 O.2     1  UNL1       -0.2697
      9 N         139.2625  139.9893  162.7774 N.am    1  UNL1       -0.2750
     10 C         140.5161  140.5667  163.3648 C.3     1  UNL1        0.1014
     11 C         140.2176  139.8882  164.6688 C.3     1  UNL1        0.0821
     12 C         138.9640  139.3108  164.0815 C.3     1  UNL1        0.1014
     13 C         140.8929  139.8167  166.0063 C.ar    1  UNL1        0.0893
     14 N         140.2358  140.4213  167.2116 N.ar    1  UNL1       -0.2459
     15 C         140.9111  140.3498  168.5490 C.ar    1  UNL1        0.1024
     16 C         142.2436  139.6737  168.6812 C.ar    1  UNL1        0.0927
     17 C         142.9007  139.0691  167.4760 C.ar    1  UNL1        0.0363
     18 C         142.2253  139.1406  166.1385 C.ar    1  UNL1        0.1536
     19 F         142.8825  138.5360  164.9332 F       1  UNL1       -0.2029
     20 C         142.9189  139.6022  170.0187 C.3     1  UNL1        0.4201
     21 F         143.5943  139.5307  171.3561 F       1  UNL1       -0.1658
     22 F         143.3906  141.0168  169.8561 F       1  UNL1       -0.1658
     23 F         142.4473  138.1876  170.1812 F       1  UNL1       -0.1658
     24 S         141.7441  140.3815  157.3252 S.O2    1  UNL1        0.0133
     25 C         142.7097  139.7370  156.3754 C.3     1  UNL1        0.1817
     26 O         140.6091  140.0302  156.4097 O.2     1  UNL1       -0.1685
     27 O         142.8792  140.7328  158.2407 O.2     1  UNL1       -0.1685
     28 C         141.5855  138.3610  160.5112 C.3     1  UNL1        0.2525
     29 O         140.5185  138.7718  159.5403 O.3     1  UNL1       -0.4699
     30 O         137.8815  142.9595  161.1244 O.3     1  UNL1       -0.4701
     31 C         138.3927  143.7515  162.2912 C.3     1  UNL1        0.2600
     32 C         139.4837  144.7614  162.0918 C.3     1  UNL1        0.0566
     33 C         137.8129  143.5336  163.6574 C.3     1  UNL1        0.4340
     34 F         137.2332  143.3158  165.0235 F       1  UNL1       -0.1664
     35 F         138.5230  144.7580  164.1540 F       1  UNL1       -0.1664
     36 F         137.1028  142.3093  163.1608 F       1  UNL1       -0.1664
@<TRIPOS>BOND
     1    28    29    1
     2    29     1    1
     3     1     2   ar
     4     2    24    1
     5    24    25    1
     6    24    26    2
     7    24    27    2
     8     2     3   ar
     9     3     4   ar
    10     4     5   ar
    11     5    30    1
    12    30    31    1
    13    31    32    1
    14    31    33    1
    15    33    34    1
    16    33    35    1
    17    33    36    1
    18     5     6   ar
    19     6     7    1
    20     7     8    2
    21     7     9   am
    22     9    10    1
    23    10    11    1
    24    11    13    1
    25    13    14   ar
    26    14    15   ar
    27    15    16   ar
    28    16    20    1
    29    20    21    1
    30    20    22    1
    31    20    23    1
    32    16    17   ar
    33    17    18   ar
    34    18    19    1
    35    11    12    1
    36     6     1   ar
    37    12     9    1
    38    18    13   ar
@<TRIPOS>MOLECULE
*****
 36 38 0 0 0
SMALL
GASTEIGER

@<TRIPOS>ATOM
      1 C         140.1362  142.5530  159.6490 C.ar    1  UNL1        0.1629
      2 C         141.2379  142.7679  158.6541 C.ar    1  UNL1        0.1398
      3 C         142.0253  141.5982  158.1426 C.ar    1  UNL1        0.0246
      4 C         141.7110  140.2135  158.6260 C.ar    1  UNL1        0.0386
      5 C         140.6092  139.9985  159.6209 C.ar    1  UNL1        0.1461
      6 C         139.8218  141.1683  160.1324 C.ar    1  UNL1        0.1226
      7 C         138.7200  140.9533  161.1274 C.2     1  UNL1        0.2550
      8 O         137.3374  140.6151  160.6540 O.2     1  UNL1       -0.2697
      9 N         139.0008  141.0765  162.5957 N.am    1  UNL1       -0.2750
     10 C         140.2137  141.3894  163.4211 C.3     1  UNL1        0.1014
     11 C         139.3980  141.2506  164.6722 C.3     1  UNL1        0.0821
     12 C         138.1852  140.9377  163.8469 C.3     1  UNL1        0.1014
     13 C         139.6788  141.3738  166.1405 C.ar    1  UNL1        0.0893
     14 N         140.1896  142.6683  166.7004 N.ar    1  UNL1       -0.2459
     15 C         140.4705  142.7914  168.1687 C.ar    1  UNL1        0.1024
     16 C         140.2405  141.6201  169.0772 C.ar    1  UNL1        0.0927
     17 C         139.7297  140.3257  168.5172 C.ar    1  UNL1        0.0363
     18 C         139.4488  140.2025  167.0489 C.ar    1  UNL1        0.1536
     19 F         138.9380  138.9080  166.4890 F       1  UNL1       -0.2029
     20 C         140.5213  141.7433  170.5455 C.3     1  UNL1        0.4201
     21 F         140.8021  141.8664  172.0138 F       1  UNL1       -0.1658
     22 F         139.4655  142.8027  170.6585 F       1  UNL1       -0.1658
     23 F         141.5771  140.6838  170.4324 F       1  UNL1       -0.1658
     24 S         141.5523  144.1527  158.1707 S.O2    1  UNL1        0.0133
     25 C         141.8668  145.5374  157.6873 C.3     1  UNL1        0.1817
     26 O         142.5656  144.3050  159.2661 O.2     1  UNL1       -0.1685
     27 O         140.5391  144.0004  157.0753 O.2     1  UNL1       -0.1685
     28 C         139.7756  144.4225  161.4168 C.3     1  UNL1        0.2525
     29 O         139.3488  143.7228  160.1606 O.3     1  UNL1       -0.4699
     30 O         140.2948  138.6138  160.1044 O.3     1  UNL1       -0.4701
     31 C         140.9138  138.1033  161.3718 C.3     1  UNL1        0.2600
     32 C         142.4037  137.9645  161.4759 C.3     1  UNL1        0.0566
     33 C         140.0428  137.7315  162.5351 C.3     1  UNL1        0.4340
     34 F         139.1717  137.3598  163.6983 F       1  UNL1       -0.1664
     35 F         138.8426  137.7283  161.6354 F       1  UNL1       -0.1664
     36 F         141.2429  137.7347  163.4348 F       1  UNL1       -0.1664
@<TRIPOS>BOND
     1    28    29    1
     2    29     1    1
     3     1     2   ar
     4     2    24    1
     5    24    25    1
     6    24    26    2
     7    24    27    2
     8     2     3   ar
     9     3     4   ar
    10     4     5   ar
    11     5    30    1
    12    30    31    1
    13    31    32    1
    14    31    33    1
    15    33    34    1
    16    33    35    1
    17    33    36    1
    18     5     6   ar
    19     6     7    1
    20     7     8    2
    21     7     9   am
    22     9    10    1
    23    10    11    1
    24    11    13    1
    25    13    14   ar
    26    14    15   ar
    27    15    16   ar
    28    16    20    1
    29    20    21    1
    30    20    22    1
    31    20    23    1
    32    16    17   ar
    33    17    18   ar
    34    18    19    1
    35    11    12    1
    36     6     1   ar
    37    12     9    1
    38    18    13   ar
@<TRIPOS>MOLECULE
*****
 36 38 0 0 0
SMALL
GASTEIGER

@<TRIPOS>ATOM
      1 C         142.1077  143.9728  159.9853 C.ar    1  UNL1        0.1629
      2 C         141.6404  143.4581  158.6562 C.ar    1  UNL1        0.1398
      3 C         142.1490  142.1450  158.1394 C.ar    1  UNL1        0.0246
      4 C         143.1249  141.3466  158.9518 C.ar    1  UNL1        0.0386
      5 C         143.5922  141.8613  160.2809 C.ar    1  UNL1        0.1461
      6 C         143.0836  143.1744  160.7977 C.ar    1  UNL1        0.1226
      7 C         143.5510  143.6890  162.1269 C.2     1  UNL1        0.2550
      8 O         144.5801  144.7785  162.1896 O.2     1  UNL1       -0.2697
      9 N         142.9892  143.1142  163.3934 N.am    1  UNL1       -0.2750
     10 C         141.9809  142.0528  163.7207 C.3     1  UNL1        0.1014
     11 C         142.1946  142.3012  165.1844 C.3     1  UNL1        0.0821
     12 C         143.2028  143.3625  164.8572 C.3     1  UNL1        0.1014
     13 C         141.6328  141.7264  166.4509 C.ar    1  UNL1        0.0893
     14 N         140.8164  142.5880  167.3681 N.ar    1  UNL1       -0.2459
     15 C         140.2546  142.0131  168.6345 C.ar    1  UNL1        0.1024
     16 C         140.5092  140.5767  168.9838 C.ar    1  UNL1        0.0927
     17 C         141.3256  139.7152  168.0666 C.ar    1  UNL1        0.0363
     18 C         141.8874  140.2900  166.8001 C.ar    1  UNL1        0.1536
     19 F         142.7039  139.4284  165.8829 F       1  UNL1       -0.2029
     20 C         139.9474  140.0018  170.2502 C.3     1  UNL1        0.4201
     21 F         139.3856  139.4270  171.5167 F       1  UNL1       -0.1658
     22 F         138.7060  140.8249  170.0732 F       1  UNL1       -0.1658
     23 F         141.1888  139.1787  170.4273 F       1  UNL1       -0.1658
     24 S         140.6644  144.2566  157.8437 S.O2    1  UNL1        0.0133
     25 C         139.6884  145.0550  157.0313 C.3     1  UNL1        0.1817
     26 O         139.5260  143.5375  158.5046 O.2     1  UNL1       -0.1685
     27 O         141.8028  144.9757  157.1827 O.2     1  UNL1       -0.1685
     28 C         140.4318  145.3200  161.4435 C.3     1  UNL1        0.2525
     29 O         141.5991  145.2859  160.5021 O.3     1  UNL1       -0.4699
     30 O         144.5682  141.0628  161.0934 O.3     1  UNL1       -0.4701
     31 C         144.0771  139.9619  161.9861 C.3     1  UNL1        0.2600
     32 C         142.9389  139.0902  161.5452 C.3     1  UNL1        0.0566
     33 C         144.7244  139.7328  163.3198 C.3     1  UNL1        0.4340
     34 F         145.3716  139.5037  164.6534 F       1  UNL1       -0.1664
     35 F         143.9012  138.4929  163.5062 F       1  UNL1       -0.1664
     36 F         145.5476  140.9728  163.1334 F       1  UNL1       -0.1664
@<TRIPOS>BOND
     1    28    29    1
     2    29     1    1
     3     1     2   ar
     4     2    24    1
     5    24    25    1
     6    24    26    2
     7    24    27    2
     8     2     3   ar
     9     3     4   ar
    10     4     5   ar
    11     5    30    1
    12    30    31    1
    13    31    32    1
    14    31    33    1
    15    33    34    1
    16    33    35    1
    17    33    36    1
    18     5     6   ar
    19     6     7    1
    20     7     8    2
    21     7     9   am
    22     9    10    1
    23    10    11    1
    24    11    13    1
    25    13    14   ar
    26    14    15   ar
    27    15    16   ar
    28    16    20    1
    29    20    21    1
    30    20    22    1
    31    20    23    1
    32    16    17   ar
    33    17    18   ar
    34    18    19    1
    35    11    12    1
    36     6     1   ar
    37    12     9    1
    38    18    13   ar
@<TRIPOS>MOLECULE
*****
 36 38 0 0 0
SMALL
GASTEIGER

@<TRIPOS>ATOM
      1 C         140.4138  139.9728  166.5147 C.ar    1  UNL1        0.1629
      2 C         141.0259  140.2469  167.8564 C.ar    1  UNL1        0.1398
      3 C         142.4610  139.8935  168.1124 C.ar    1  UNL1        0.0246
      4 C         143.2840  139.2659  167.0268 C.ar    1  UNL1        0.0386
      5 C         142.6719  138.9918  165.6851 C.ar    1  UNL1        0.1461
      6 C         141.2368  139.3453  165.4290 C.ar    1  UNL1        0.1226
      7 C         140.6248  139.0711  164.0872 C.2     1  UNL1        0.2550
      8 O         139.9278  137.7675  163.8331 O.2     1  UNL1       -0.2697
      9 N         140.7098  140.1007  162.9997 N.am    1  UNL1       -0.2750
     10 C         141.3044  141.4729  162.8822 C.3     1  UNL1        0.1014
     11 C         140.8300  141.5567  161.4617 C.3     1  UNL1        0.0821
     12 C         140.2355  140.1847  161.5791 C.3     1  UNL1        0.1014
     13 C         140.9151  142.5863  160.3741 C.ar    1  UNL1        0.0893
     14 N         139.9326  143.7192  160.3354 N.ar    1  UNL1       -0.2459
     15 C         140.0176  144.7487  159.2478 C.ar    1  UNL1        0.1024
     16 C         141.0851  144.6454  158.1990 C.ar    1  UNL1        0.0927
     17 C         142.0675  143.5125  158.2378 C.ar    1  UNL1        0.0363
     18 C         141.9824  142.4830  159.3253 C.ar    1  UNL1        0.1536
     19 F         142.9649  141.3501  159.3641 F       1  UNL1       -0.2029
     20 C         141.1701  145.6749  157.1114 C.3     1  UNL1        0.4201
     21 F         141.2551  146.7045  156.0239 F       1  UNL1       -0.1658
     22 F         142.5631  146.0205  157.5475 F       1  UNL1       -0.1658
     23 F         139.7771  145.3294  156.6754 F       1  UNL1       -0.1658
     24 S         140.2028  140.8745  168.9422 S.O2    1  UNL1        0.0133
     25 C         139.3798  141.5021  170.0279 C.3     1  UNL1        0.1817
     26 O         139.8762  139.5134  169.4813 O.2     1  UNL1       -0.1685
     27 O         140.5295  142.2356  168.4031 O.2     1  UNL1       -0.1685
     28 C         137.9153  139.2746  166.3731 C.3     1  UNL1        0.2525
     29 O         138.9787  140.3263  166.2587 O.3     1  UNL1       -0.4699
     30 O         143.4950  138.3642  164.5993 O.3     1  UNL1       -0.4701
     31 C         144.1972  139.2295  163.5952 C.3     1  UNL1        0.2600
     32 C         145.1342  140.3057  164.0576 C.3     1  UNL1        0.0566
     33 C         143.9623  139.0186  162.1288 C.3     1  UNL1        0.4340
     34 F         143.7274  138.8077  160.6624 F       1  UNL1       -0.1664
     35 F         143.1863  137.7714  162.4325 F       1  UNL1       -0.1664
     36 F         144.7383  140.2658  161.8251 F       1  UNL1       -0.1664
@<TRIPOS>BOND
     1    28    29    1
     2    29     1    1
     3     1     2   ar
     4     2    24    1
     5    24    25    1
     6    24    26    2
     7    24    27    2
     8     2     3   ar
     9     3     4   ar
    10     4     5   ar
    11     5    30    1
    12    30    31    1
    13    31    32    1
    14    31    33    1
    15    33    34    1
    16    33    35    1
    17    33    36    1
    18     5     6   ar
    19     6     7    1
    20     7     8    2
    21     7     9   am
    22     9    10    1
    23    10    11    1
    24    11    13    1
    25    13    14   ar
    26    14    15   ar
    27    15    16   ar
    28    16    20    1
    29    20    21    1
    30    20    22    1
    31    20    23    1
    32    16    17   ar
    33    17    18   ar
    34    18    19    1
    35    11    12    1
    36     6     1   ar
    37    12     9    1
    38    18    13   ar
