@<TRIPOS>MOLECULE
*****
 34 38 0 0 0
SMALL
GASTEIGER

@<TRIPOS>ATOM
      1 N         140.8181  144.0187  162.4244 N.ar    1  UNL1       -0.2792
      2 C         142.1098  143.4855  161.8795 C.ar    1  UNL1        0.1472
      3 N         142.5094  143.7884  160.4657 N.ar    1  UNL1       -0.2249
      4 C         141.6172  144.6246  159.5970 C.ar    1  UNL1        0.1256
      5 C         141.7460  145.0852  158.1753 C.ar    1  UNL1        0.1158
      6 N         140.5337  145.9032  157.8416 N.ar    1  UNL1       -0.2497
      7 N         139.6558  145.9481  159.0570 N.ar    1  UNL1       -0.1628
      8 C         140.3254  145.1578  160.1419 C.ar    1  UNL1        0.1759
      9 C         139.9259  144.8549  161.5556 C.ar    1  UNL1        0.2829
     10 O         138.6341  145.3881  162.1005 O.2     1  UNL1       -0.2652
     11 C         143.0020  142.6493  162.7483 C.ar    1  UNL1        0.0478
     12 C         142.9813  141.1544  162.6257 C.ar    1  UNL1        0.0058
     13 C         143.8735  140.3182  163.4945 C.ar    1  UNL1        0.0208
     14 C         144.7864  140.9769  164.4858 C.ar    1  UNL1        0.0984
     15 N         144.8071  142.4717  164.6084 N.ar    1  UNL1       -0.2480
     16 C         143.9149  143.3079  163.7396 C.ar    1  UNL1        0.0623
     17 C         143.9356  144.8028  163.8621 C.3     1  UNL1        0.0522
     18 C         140.2493  146.5609  156.5238 C.3     1  UNL1        0.1053
     19 C         141.0076  146.1443  155.2985 C.3     1  UNL1        0.0244
     20 C         140.7231  146.8020  153.9807 C.3     1  UNL1        0.0020
     21 C         139.6804  147.8763  153.8882 C.3     1  UNL1        0.0001
     22 C         138.9220  148.2929  155.1135 C.3     1  UNL1        0.0020
     23 C         139.2065  147.6352  156.4313 C.3     1  UNL1        0.0244
     24 C         140.4184  143.7158  163.8381 C.3     1  UNL1        0.1119
     25 N         138.5528  140.2391  163.4115 N.3     1  UNL1       -0.2705
     26 C         138.4914  139.7737  164.8362 C.3     1  UNL1        0.0722
     27 C         139.0723  140.6224  165.9282 C.3     1  UNL1        0.0174
     28 C         139.7146  141.9364  165.5955 C.3     1  UNL1        0.0048
     29 C         139.7761  142.4018  164.1708 C.3     1  UNL1        0.0388
     30 C         139.1952  141.5532  163.0789 C.3     1  UNL1        0.0741
     31 C         137.9719  139.3905  162.3196 C.3     1  UNL1        0.1046
     32 C         138.3808  137.9533  162.1887 C.3     1  UNL1        0.1595
     33 C         140.8855  137.5670  162.7613 C.3     1  UNL1        0.1742
     34 O         139.7741  137.6065  161.7546 O.3     1  UNL1       -0.3496
@<TRIPOS>BOND
     1    33    34    1
     2    34    32    1
     3    32    31    1
     4    31    25    1
     5    25    26    1
     6    26    27    1
     7    27    28    1
     8    28    29    1
     9    29    24    1
    10    24     1    1
    11     1     2   ar
    12     2    11    1
    13    11    12   ar
    14    12    13   ar
    15    13    14   ar
    16    14    15   ar
    17    15    16   ar
    18    16    17    1
    19     2     3   ar
    20     3     4   ar
    21     4     5   ar
    22     5     6   ar
    23     6    18    1
    24    18    19    1
    25    19    20    1
    26    20    21    1
    27    21    22    1
    28    22    23    1
    29     6     7   ar
    30     7     8   ar
    31     8     9   ar
    32     9    10    2
    33    29    30    1
    34    30    25    1
    35     9     1   ar
    36    16    11   ar
    37     8     4   ar
    38    23    18    1
@<TRIPOS>MOLECULE
*****
 34 38 0 0 0
SMALL
GASTEIGER

@<TRIPOS>ATOM
      1 N         141.3518  143.8509  162.5968 N.ar    1  UNL1       -0.2792
      2 C         142.4746  143.1416  161.8998 C.ar    1  UNL1        0.1472
      3 N         142.7090  143.3658  160.4352 N.ar    1  UNL1       -0.2249
      4 C         141.8205  144.2994  159.6678 C.ar    1  UNL1        0.1256
      5 C         141.8083  144.7159  158.2269 C.ar    1  UNL1        0.1158
      6 N         140.6779  145.6826  158.0334 N.ar    1  UNL1       -0.2497
      7 N         139.9914  145.8636  159.3548 N.ar    1  UNL1       -0.1628
      8 C         140.6976  145.0087  160.3649 C.ar    1  UNL1        0.1759
      9 C         140.4632  144.7845  161.8294 C.ar    1  UNL1        0.2829
     10 O         139.3403  145.4938  162.5265 O.2     1  UNL1       -0.2652
     11 C         143.3632  142.2080  162.6673 C.ar    1  UNL1        0.0478
     12 C         144.5977  142.7309  163.3400 C.ar    1  UNL1        0.0058
     13 C         145.4863  141.7974  164.1074 C.ar    1  UNL1        0.0208
     14 C         145.1403  140.3409  164.2021 C.ar    1  UNL1        0.0984
     15 N         143.9058  139.8180  163.5295 N.ar    1  UNL1       -0.2480
     16 C         143.0172  140.7515  162.7620 C.ar    1  UNL1        0.0623
     17 C         141.7826  140.2287  162.0893 C.3     1  UNL1        0.0522
     18 C         140.3002  146.3511  156.7448 C.3     1  UNL1        0.1053
     19 C         141.0063  145.9827  155.4737 C.3     1  UNL1        0.0244
     20 C         140.6285  146.6512  154.1851 C.3     1  UNL1        0.0020
     21 C         139.5447  147.6881  154.1676 C.3     1  UNL1        0.0001
     22 C         138.8386  148.0565  155.4387 C.3     1  UNL1        0.0020
     23 C         139.2164  147.3880  156.7273 C.3     1  UNL1        0.0244
     24 C         141.1173  143.6267  164.0614 C.3     1  UNL1        0.1119
     25 N         139.6084  140.6823  166.2530 N.3     1  UNL1       -0.2705
     26 C         138.4210  140.2916  165.4239 C.3     1  UNL1        0.0722
     27 C         138.1324  141.0127  164.1406 C.3     1  UNL1        0.0174
     28 C         139.0311  142.1243  163.6864 C.3     1  UNL1        0.0048
     29 C         140.2186  142.5151  164.5155 C.3     1  UNL1        0.0388
     30 C         140.5072  141.7940  165.7988 C.3     1  UNL1        0.0741
     31 C         139.8969  139.9612  167.5363 C.3     1  UNL1        0.1046
     32 C         140.5158  140.6973  168.6874 C.3     1  UNL1        0.1595
     33 C         140.5111  143.2130  169.3369 C.3     1  UNL1        0.1742
     34 O         139.8171  141.8843  169.2814 O.3     1  UNL1       -0.3496
@<TRIPOS>BOND
     1    33    34    1
     2    34    32    1
     3    32    31    1
     4    31    25    1
     5    25    26    1
     6    26    27    1
     7    27    28    1
     8    28    29    1
     9    29    24    1
    10    24     1    1
    11     1     2   ar
    12     2    11    1
    13    11    12   ar
    14    12    13   ar
    15    13    14   ar
    16    14    15   ar
    17    15    16   ar
    18    16    17    1
    19     2     3   ar
    20     3     4   ar
    21     4     5   ar
    22     5     6   ar
    23     6    18    1
    24    18    19    1
    25    19    20    1
    26    20    21    1
    27    21    22    1
    28    22    23    1
    29     6     7   ar
    30     7     8   ar
    31     8     9   ar
    32     9    10    2
    33    29    30    1
    34    30    25    1
    35     9     1   ar
    36    16    11   ar
    37     8     4   ar
    38    23    18    1
@<TRIPOS>MOLECULE
*****
 34 38 0 0 0
SMALL
GASTEIGER

@<TRIPOS>ATOM
      1 N         141.3080  139.4398  160.2906 N.ar    1  UNL1       -0.2792
      2 C         142.7647  139.1004  160.4025 C.ar    1  UNL1        0.1472
      3 N         143.4125  138.2259  159.3702 N.ar    1  UNL1       -0.2249
      4 C         142.6035  137.6909  158.2260 C.ar    1  UNL1        0.1256
      5 C         142.9652  136.8120  157.0655 C.ar    1  UNL1        0.1158
      6 N         141.7319  136.6083  156.2363 N.ar    1  UNL1       -0.2497
      7 N         140.6080  137.3613  156.8844 N.ar    1  UNL1       -0.1628
      8 C         141.1467  138.0303  158.1141 C.ar    1  UNL1        0.1759
      9 C         140.4989  138.9048  159.1464 C.ar    1  UNL1        0.2829
     10 O         139.0421  139.2443  159.0345 O.2     1  UNL1       -0.2652
     11 C         143.5738  139.6355  161.5468 C.ar    1  UNL1        0.0478
     12 C         143.7148  138.8323  162.8058 C.ar    1  UNL1        0.0058
     13 C         144.5238  139.3674  163.9500 C.ar    1  UNL1        0.0208
     14 C         145.1918  140.7055  163.8352 C.ar    1  UNL1        0.0984
     15 N         145.0507  141.5087  162.5762 N.ar    1  UNL1       -0.2480
     16 C         144.2417  140.9736  161.4320 C.ar    1  UNL1        0.0623
     17 C         144.1006  141.7767  160.1729 C.3     1  UNL1        0.0522
     18 C         141.6388  135.7946  154.9797 C.3     1  UNL1        0.1053
     19 C         141.5214  134.3013  155.0602 C.3     1  UNL1        0.0244
     20 C         141.4283  133.4876  153.8035 C.3     1  UNL1        0.0020
     21 C         141.4525  134.1670  152.4664 C.3     1  UNL1        0.0001
     22 C         141.5699  135.6603  152.3860 C.3     1  UNL1        0.0020
     23 C         141.6630  136.4740  153.6427 C.3     1  UNL1        0.0244
     24 C         140.6601  140.3144  161.3229 C.3     1  UNL1        0.1119
     25 N         139.5179  139.9090  165.1019 N.3     1  UNL1       -0.2705
     26 C         139.0080  138.4984  165.0942 C.3     1  UNL1        0.0722
     27 C         139.0489  137.6930  163.8293 C.3     1  UNL1        0.0174
     28 C         139.5996  138.2983  162.5722 C.3     1  UNL1        0.0048
     29 C         140.1095  139.7091  162.5799 C.3     1  UNL1        0.0388
     30 C         140.0686  140.5143  163.8448 C.3     1  UNL1        0.0741
     31 C         139.4771  140.7143  166.3668 C.3     1  UNL1        0.1046
     32 C         140.0831  140.1663  167.6246 C.3     1  UNL1        0.1595
     33 C         138.9609  140.4616  169.9493 C.3     1  UNL1        0.1742
     34 O         139.1986  139.6410  168.7163 O.3     1  UNL1       -0.3496
@<TRIPOS>BOND
     1    33    34    1
     2    34    32    1
     3    32    31    1
     4    31    25    1
     5    25    26    1
     6    26    27    1
     7    27    28    1
     8    28    29    1
     9    29    24    1
    10    24     1    1
    11     1     2   ar
    12     2    11    1
    13    11    12   ar
    14    12    13   ar
    15    13    14   ar
    16    14    15   ar
    17    15    16   ar
    18    16    17    1
    19     2     3   ar
    20     3     4   ar
    21     4     5   ar
    22     5     6   ar
    23     6    18    1
    24    18    19    1
    25    19    20    1
    26    20    21    1
    27    21    22    1
    28    22    23    1
    29     6     7   ar
    30     7     8   ar
    31     8     9   ar
    32     9    10    2
    33    29    30    1
    34    30    25    1
    35     9     1   ar
    36    16    11   ar
    37     8     4   ar
    38    23    18    1
@<TRIPOS>MOLECULE
*****
 34 38 0 0 0
SMALL
GASTEIGER

@<TRIPOS>ATOM
      1 N         143.2318  141.7981  162.4625 N.ar    1  UNL1       -0.2792
      2 C         142.6920  140.4767  162.0017 C.ar    1  UNL1        0.1472
      3 N         142.9409  140.0136  160.5968 N.ar    1  UNL1       -0.2249
      4 C         143.7296  140.8720  159.6529 C.ar    1  UNL1        0.1256
      5 C         144.1325  140.6806  158.2207 C.ar    1  UNL1        0.1158
      6 N         144.9213  141.8839  157.7965 N.ar    1  UNL1       -0.2497
      7 N         145.0059  142.8188  158.9664 N.ar    1  UNL1       -0.1628
      8 C         144.2694  142.1934  160.1137 C.ar    1  UNL1        0.1759
      9 C         144.0204  142.6565  161.5186 C.ar    1  UNL1        0.2829
     10 O         144.5602  143.9780  161.9794 O.2     1  UNL1       -0.2652
     11 C         141.9033  139.6183  162.9458 C.ar    1  UNL1        0.0478
     12 C         142.6123  138.6781  163.8749 C.ar    1  UNL1        0.0058
     13 C         141.8236  137.8197  164.8189 C.ar    1  UNL1        0.0208
     14 C         140.3259  137.9015  164.8338 C.ar    1  UNL1        0.0984
     15 N         139.6169  138.8417  163.9046 N.ar    1  UNL1       -0.2480
     16 C         140.4056  139.7001  162.9606 C.ar    1  UNL1        0.0623
     17 C         139.6966  140.6404  162.0314 C.3     1  UNL1        0.0522
     18 C         145.5204  142.1121  156.4404 C.3     1  UNL1        0.1053
     19 C         147.0097  142.0833  156.2638 C.3     1  UNL1        0.0244
     20 C         147.6087  142.3116  154.9077 C.3     1  UNL1        0.0020
     21 C         146.7184  142.5687  153.7281 C.3     1  UNL1        0.0001
     22 C         145.2292  142.5975  153.9046 C.3     1  UNL1        0.0020
     23 C         144.6302  142.3692  155.2608 C.3     1  UNL1        0.0244
     24 C         142.9829  142.2612  163.8674 C.3     1  UNL1        0.1119
     25 N         139.7954  144.6036  163.5457 N.3     1  UNL1       -0.2705
     26 C         139.1567  144.3990  164.8874 C.3     1  UNL1        0.0722
     27 C         139.7934  143.4818  165.8891 C.3     1  UNL1        0.0174
     28 C         141.0687  142.7692  165.5492 C.3     1  UNL1        0.0048
     29 C         141.7075  142.9738  164.2074 C.3     1  UNL1        0.0388
     30 C         141.0709  143.8910  163.2057 C.3     1  UNL1        0.0741
     31 C         139.1587  145.5208  162.5440 C.3     1  UNL1        0.1046
     32 C         139.9404  145.9885  161.3523 C.3     1  UNL1        0.1595
     33 C         140.8692  145.4045  158.9972 C.3     1  UNL1        0.1742
     34 O         139.7936  145.2846  160.0358 O.3     1  UNL1       -0.3496
@<TRIPOS>BOND
     1    33    34    1
     2    34    32    1
     3    32    31    1
     4    31    25    1
     5    25    26    1
     6    26    27    1
     7    27    28    1
     8    28    29    1
     9    29    24    1
    10    24     1    1
    11     1     2   ar
    12     2    11    1
    13    11    12   ar
    14    12    13   ar
    15    13    14   ar
    16    14    15   ar
    17    15    16   ar
    18    16    17    1
    19     2     3   ar
    20     3     4   ar
    21     4     5   ar
    22     5     6   ar
    23     6    18    1
    24    18    19    1
    25    19    20    1
    26    20    21    1
    27    21    22    1
    28    22    23    1
    29     6     7   ar
    30     7     8   ar
    31     8     9   ar
    32     9    10    2
    33    29    30    1
    34    30    25    1
    35     9     1   ar
    36    16    11   ar
    37     8     4   ar
    38    23    18    1
@<TRIPOS>MOLECULE
*****
 34 38 0 0 0
SMALL
GASTEIGER

@<TRIPOS>ATOM
      1 N         140.3178  141.1130  161.1995 N.ar    1  UNL1       -0.2792
      2 C         140.4776  142.5771  160.9156 C.ar    1  UNL1        0.1472
      3 N         139.7316  143.2060  159.7762 N.ar    1  UNL1       -0.2249
      4 C         138.8257  142.3706  158.9209 C.ar    1  UNL1        0.1256
      5 C         137.9681  142.7097  157.7379 C.ar    1  UNL1        0.1158
      6 N         137.2782  141.4551  157.2908 N.ar    1  UNL1       -0.2497
      7 N         137.7094  140.3406  158.1974 N.ar    1  UNL1       -0.1628
      8 C         138.6659  140.9065  159.2049 C.ar    1  UNL1        0.1759
      9 C         139.4119  140.2776  160.3442 C.ar    1  UNL1        0.2829
     10 O         139.2521  138.8135  160.6282 O.2     1  UNL1       -0.2652
     11 C         141.3836  143.4125  161.7709 C.ar    1  UNL1        0.0478
     12 C         140.8338  144.1292  162.9685 C.ar    1  UNL1        0.0058
     13 C         141.7397  144.9645  163.8238 C.ar    1  UNL1        0.0208
     14 C         143.1953  145.0831  163.4816 C.ar    1  UNL1        0.0984
     15 N         143.7450  144.3664  162.2841 N.ar    1  UNL1       -0.2480
     16 C         142.8392  143.5311  161.4287 C.ar    1  UNL1        0.0623
     17 C         143.3888  142.8143  160.2312 C.3     1  UNL1        0.0522
     18 C         136.3245  141.3359  156.1392 C.3     1  UNL1        0.1053
     19 C         136.6418  141.9976  154.8310 C.3     1  UNL1        0.0244
     20 C         135.6880  141.8783  153.6794 C.3     1  UNL1        0.0020
     21 C         134.4169  141.0973  153.8360 C.3     1  UNL1        0.0001
     22 C         134.0996  140.4357  155.1443 C.3     1  UNL1        0.0020
     23 C         135.0534  140.5550  156.2958 C.3     1  UNL1        0.0244
     24 C         141.0638  140.4841  162.3389 C.3     1  UNL1        0.1119
     25 N         140.6834  141.1133  166.2388 N.3     1  UNL1       -0.2705
     26 C         139.3144  140.5517  166.4843 C.3     1  UNL1        0.0722
     27 C         138.5284  139.9676  165.3479 C.3     1  UNL1        0.0174
     28 C         139.1115  139.9451  163.9662 C.3     1  UNL1        0.0048
     29 C         140.4807  140.5066  163.7206 C.3     1  UNL1        0.0388
     30 C         141.2666  141.0907  164.8569 C.3     1  UNL1        0.0741
     31 C         141.4693  141.6974  167.3751 C.3     1  UNL1        0.1046
     32 C         142.9315  141.9857  167.2056 C.3     1  UNL1        0.1595
     33 C         143.4611  142.3153  169.7278 C.3     1  UNL1        0.1742
     34 O         143.6881  142.6893  168.2930 O.3     1  UNL1       -0.3496
@<TRIPOS>BOND
     1    33    34    1
     2    34    32    1
     3    32    31    1
     4    31    25    1
     5    25    26    1
     6    26    27    1
     7    27    28    1
     8    28    29    1
     9    29    24    1
    10    24     1    1
    11     1     2   ar
    12     2    11    1
    13    11    12   ar
    14    12    13   ar
    15    13    14   ar
    16    14    15   ar
    17    15    16   ar
    18    16    17    1
    19     2     3   ar
    20     3     4   ar
    21     4     5   ar
    22     5     6   ar
    23     6    18    1
    24    18    19    1
    25    19    20    1
    26    20    21    1
    27    21    22    1
    28    22    23    1
    29     6     7   ar
    30     7     8   ar
    31     8     9   ar
    32     9    10    2
    33    29    30    1
    34    30    25    1
    35     9     1   ar
    36    16    11   ar
    37     8     4   ar
    38    23    18    1
@<TRIPOS>MOLECULE
*****
 34 38 0 0 0
SMALL
GASTEIGER

@<TRIPOS>ATOM
      1 N         139.2273  141.9958  161.9278 N.ar    1  UNL1       -0.2792
      2 C         140.1406  142.9919  162.5785 C.ar    1  UNL1        0.1472
      3 N         140.7068  144.1261  161.7765 N.ar    1  UNL1       -0.2249
      4 C         140.3596  144.2641  160.3238 C.ar    1  UNL1        0.1256
      5 C         140.7620  145.2704  159.2868 C.ar    1  UNL1        0.1158
      6 N         140.0974  144.8962  157.9953 N.ar    1  UNL1       -0.2497
      7 N         139.2842  143.6585  158.2339 N.ar    1  UNL1       -0.1628
      8 C         139.4462  143.2679  159.6731 C.ar    1  UNL1        0.1759
      9 C         138.8801  142.1337  160.4751 C.ar    1  UNL1        0.2829
     10 O         137.9668  141.1375  159.8244 O.2     1  UNL1       -0.2652
     11 C         140.4879  142.8539  164.0313 C.ar    1  UNL1        0.0478
     12 C         141.7157  142.0955  164.4402 C.ar    1  UNL1        0.0058
     13 C         142.0630  141.9575  165.8929 C.ar    1  UNL1        0.0208
     14 C         141.1824  142.5780  166.9367 C.ar    1  UNL1        0.0984
     15 N         139.9545  143.3364  166.5278 N.ar    1  UNL1       -0.2480
     16 C         139.6073  143.4744  165.0751 C.ar    1  UNL1        0.0623
     17 C         138.3795  144.2328  164.6661 C.3     1  UNL1        0.0522
     18 C         140.2237  145.6306  156.6935 C.3     1  UNL1        0.1053
     19 C         139.4142  146.8696  156.4497 C.3     1  UNL1        0.0244
     20 C         139.5406  147.6040  155.1479 C.3     1  UNL1        0.0020
     21 C         140.4765  147.0995  154.0898 C.3     1  UNL1        0.0001
     22 C         141.2861  145.8605  154.3336 C.3     1  UNL1        0.0020
     23 C         141.1597  145.1261  155.6355 C.3     1  UNL1        0.0244
     24 C         138.6612  140.8615  162.7298 C.3     1  UNL1        0.1119
     25 N         141.4392  138.0576  162.3169 N.3     1  UNL1       -0.2705
     26 C         141.1500  137.1944  163.5091 C.3     1  UNL1        0.0722
     27 C         140.0312  137.5536  164.4415 C.3     1  UNL1        0.0174
     28 C         139.2016  138.7760  164.1818 C.3     1  UNL1        0.0048
     29 C         139.4907  139.6392  162.9895 C.3     1  UNL1        0.0388
     30 C         140.6095  139.2800  162.0572 C.3     1  UNL1        0.0741
     31 C         142.5579  137.6983  161.3845 C.3     1  UNL1        0.1046
     32 C         143.9385  138.2311  161.6293 C.3     1  UNL1        0.1595
     33 C         144.7079  140.4693  162.7010 C.3     1  UNL1        0.1742
     34 O         144.2061  139.7025  161.5135 O.3     1  UNL1       -0.3496
@<TRIPOS>BOND
     1    33    34    1
     2    34    32    1
     3    32    31    1
     4    31    25    1
     5    25    26    1
     6    26    27    1
     7    27    28    1
     8    28    29    1
     9    29    24    1
    10    24     1    1
    11     1     2   ar
    12     2    11    1
    13    11    12   ar
    14    12    13   ar
    15    13    14   ar
    16    14    15   ar
    17    15    16   ar
    18    16    17    1
    19     2     3   ar
    20     3     4   ar
    21     4     5   ar
    22     5     6   ar
    23     6    18    1
    24    18    19    1
    25    19    20    1
    26    20    21    1
    27    21    22    1
    28    22    23    1
    29     6     7   ar
    30     7     8   ar
    31     8     9   ar
    32     9    10    2
    33    29    30    1
    34    30    25    1
    35     9     1   ar
    36    16    11   ar
    37     8     4   ar
    38    23    18    1
@<TRIPOS>MOLECULE
*****
 34 38 0 0 0
SMALL
GASTEIGER

@<TRIPOS>ATOM
      1 N         141.6279  140.4932  161.8460 N.ar    1  UNL1       -0.2792
      2 C         141.4157  141.9761  161.7712 C.ar    1  UNL1        0.1472
      3 N         142.1102  142.7808  160.7127 N.ar    1  UNL1       -0.2249
      4 C         143.0170  142.1023  159.7292 C.ar    1  UNL1        0.1256
      5 C         143.8307  142.6299  158.5848 C.ar    1  UNL1        0.1158
      6 N         144.5459  141.4729  157.9524 N.ar    1  UNL1       -0.2497
      7 N         144.1742  140.2303  158.7059 N.ar    1  UNL1       -0.1628
      8 C         143.2293  140.6193  159.8040 C.ar    1  UNL1        0.1759
      9 C         142.5347  139.8147  160.8625 C.ar    1  UNL1        0.2829
     10 O         142.7470  138.3317  160.9374 O.2     1  UNL1       -0.2652
     11 C         140.5088  142.6546  162.7548 C.ar    1  UNL1        0.0478
     12 C         141.0629  143.1840  164.0442 C.ar    1  UNL1        0.0058
     13 C         140.1562  143.8625  165.0278 C.ar    1  UNL1        0.0208
     14 C         138.6953  144.0115  164.7219 C.ar    1  UNL1        0.0984
     15 N         138.1412  143.4821  163.4325 N.ar    1  UNL1       -0.2480
     16 C         139.0479  142.8036  162.4489 C.ar    1  UNL1        0.0623
     17 C         138.4939  142.2742  161.1594 C.3     1  UNL1        0.0522
     18 C         145.4704  141.5457  156.7734 C.3     1  UNL1        0.1053
     19 C         145.1563  140.7752  155.5253 C.3     1  UNL1        0.0244
     20 C         146.0810  140.8481  154.3464 C.3     1  UNL1        0.0020
     21 C         147.3196  141.6913  154.4156 C.3     1  UNL1        0.0001
     22 C         147.6336  142.4617  155.6637 C.3     1  UNL1        0.0020
     23 C         146.7090  142.3889  156.8426 C.3     1  UNL1        0.0244
     24 C         140.9334  139.6885  162.9045 C.3     1  UNL1        0.1119
     25 N         141.5722  139.5845  166.8200 N.3     1  UNL1       -0.2705
     26 C         142.9414  138.9738  166.8676 C.3     1  UNL1        0.0722
     27 C         143.6413  138.6014  165.5942 C.3     1  UNL1        0.0174
     28 C         142.9720  138.8396  164.2732 C.3     1  UNL1        0.0048
     29 C         141.6027  139.4503  164.2255 C.3     1  UNL1        0.0388
     30 C         140.9029  139.8227  165.4988 C.3     1  UNL1        0.0741
     31 C         140.8723  139.9569  168.0933 C.3     1  UNL1        0.1046
     32 C         139.4064  140.2741  168.0783 C.3     1  UNL1        0.1595
     33 C         137.7370  138.5828  167.0282 C.3     1  UNL1        0.1742
     34 O         138.3993  139.1740  168.2373 O.3     1  UNL1       -0.3496
@<TRIPOS>BOND
     1    33    34    1
     2    34    32    1
     3    32    31    1
     4    31    25    1
     5    25    26    1
     6    26    27    1
     7    27    28    1
     8    28    29    1
     9    29    24    1
    10    24     1    1
    11     1     2   ar
    12     2    11    1
    13    11    12   ar
    14    12    13   ar
    15    13    14   ar
    16    14    15   ar
    17    15    16   ar
    18    16    17    1
    19     2     3   ar
    20     3     4   ar
    21     4     5   ar
    22     5     6   ar
    23     6    18    1
    24    18    19    1
    25    19    20    1
    26    20    21    1
    27    21    22    1
    28    22    23    1
    29     6     7   ar
    30     7     8   ar
    31     8     9   ar
    32     9    10    2
    33    29    30    1
    34    30    25    1
    35     9     1   ar
    36    16    11   ar
    37     8     4   ar
    38    23    18    1
@<TRIPOS>MOLECULE
*****
 34 38 0 0 0
SMALL
GASTEIGER

@<TRIPOS>ATOM
      1 N         142.1362  138.4390  162.6848 N.ar    1  UNL1       -0.2792
      2 C         140.6533  138.6136  162.5431 C.ar    1  UNL1        0.1472
      3 N         140.0212  138.5851  161.1830 N.ar    1  UNL1       -0.2249
      4 C         140.8723  138.3818  159.9647 C.ar    1  UNL1        0.1256
      5 C         140.5343  138.3085  158.5051 C.ar    1  UNL1        0.1158
      6 N         141.8085  138.0886  157.7448 N.ar    1  UNL1       -0.2497
      7 N         142.9340  138.0259  158.7344 N.ar    1  UNL1       -0.1628
      8 C         142.3554  138.2072  160.1064 C.ar    1  UNL1        0.1759
      9 C         142.9873  138.2358  161.4665 C.ar    1  UNL1        0.2829
     10 O         144.4704  138.0611  161.6082 O.2     1  UNL1       -0.2652
     11 C         139.8022  138.8169  163.7615 C.ar    1  UNL1        0.0478
     12 C         139.3277  137.6329  164.5509 C.ar    1  UNL1        0.0058
     13 C         138.4766  137.8362  165.7693 C.ar    1  UNL1        0.0208
     14 C         138.1000  139.2233  166.1982 C.ar    1  UNL1        0.0984
     15 N         138.5744  140.4072  165.4087 N.ar    1  UNL1       -0.2480
     16 C         139.4255  140.2040  164.1904 C.ar    1  UNL1        0.0623
     17 C         139.9000  141.3879  163.4009 C.3     1  UNL1        0.0522
     18 C         141.9350  137.9547  156.2561 C.3     1  UNL1        0.1053
     19 C         141.7954  139.1641  155.3798 C.3     1  UNL1        0.0244
     20 C         141.9219  139.0302  153.8911 C.3     1  UNL1        0.0020
     21 C         142.1881  137.6870  153.2788 C.3     1  UNL1        0.0001
     22 C         142.3277  136.4776  154.1551 C.3     1  UNL1        0.0020
     23 C         142.2012  136.6115  155.6438 C.3     1  UNL1        0.0244
     24 C         142.7683  138.4676  164.0449 C.3     1  UNL1        0.1119
     25 N         143.7871  142.2385  164.7465 N.3     1  UNL1       -0.2705
     26 C         143.3505  142.3892  166.1736 C.3     1  UNL1        0.0722
     27 C         142.7198  141.2327  166.8912 C.3     1  UNL1        0.0174
     28 C         142.5257  139.9255  166.1816 C.3     1  UNL1        0.0048
     29 C         142.9623  139.7747  164.7545 C.3     1  UNL1        0.0388
     30 C         143.5930  140.9312  164.0370 C.3     1  UNL1        0.0741
     31 C         144.4178  143.3949  164.0290 C.3     1  UNL1        0.1046
     32 C         144.4742  143.4070  162.5302 C.3     1  UNL1        0.1595
     33 C         142.4279  143.5087  160.9325 C.3     1  UNL1        0.1742
     34 O         143.4750  144.2073  161.7485 O.3     1  UNL1       -0.3496
@<TRIPOS>BOND
     1    33    34    1
     2    34    32    1
     3    32    31    1
     4    31    25    1
     5    25    26    1
     6    26    27    1
     7    27    28    1
     8    28    29    1
     9    29    24    1
    10    24     1    1
    11     1     2   ar
    12     2    11    1
    13    11    12   ar
    14    12    13   ar
    15    13    14   ar
    16    14    15   ar
    17    15    16   ar
    18    16    17    1
    19     2     3   ar
    20     3     4   ar
    21     4     5   ar
    22     5     6   ar
    23     6    18    1
    24    18    19    1
    25    19    20    1
    26    20    21    1
    27    21    22    1
    28    22    23    1
    29     6     7   ar
    30     7     8   ar
    31     8     9   ar
    32     9    10    2
    33    29    30    1
    34    30    25    1
    35     9     1   ar
    36    16    11   ar
    37     8     4   ar
    38    23    18    1
@<TRIPOS>MOLECULE
*****
 34 38 0 0 0
SMALL
GASTEIGER

@<TRIPOS>ATOM
      1 N         141.5476  140.0546  160.1392 N.ar    1  UNL1       -0.2792
      2 C         141.2951  141.5329  160.1121 C.ar    1  UNL1        0.1472
      3 N         142.0968  142.4141  159.2006 N.ar    1  UNL1       -0.2249
      4 C         143.1509  141.8169  158.3162 C.ar    1  UNL1        0.1256
      5 C         144.0919  142.4296  157.3217 C.ar    1  UNL1        0.1158
      6 N         144.9259  141.3300  156.7342 N.ar    1  UNL1       -0.2497
      7 N         144.5004  140.0376  157.3656 N.ar    1  UNL1       -0.1628
      8 C         143.4034  140.3385  158.3433 C.ar    1  UNL1        0.1759
      9 C         142.6017  139.4574  159.2549 C.ar    1  UNL1        0.2829
     10 O         142.8541  137.9790  159.2820 O.2     1  UNL1       -0.2652
     11 C         140.2409  142.1301  160.9965 C.ar    1  UNL1        0.0478
     12 C         140.5824  142.5408  162.3983 C.ar    1  UNL1        0.0058
     13 C         139.5283  143.1380  163.2826 C.ar    1  UNL1        0.0208
     14 C         138.1327  143.3246  162.7653 C.ar    1  UNL1        0.0984
     15 N         137.7913  142.9139  161.3636 N.ar    1  UNL1       -0.2480
     16 C         138.8454  142.3167  160.4792 C.ar    1  UNL1        0.0623
     17 C         138.5040  141.9060  159.0775 C.3     1  UNL1        0.0522
     18 C         145.9974  141.4939  155.6973 C.3     1  UNL1        0.1053
     19 C         145.7369  141.0834  154.2783 C.3     1  UNL1        0.0244
     20 C         146.8085  141.2474  153.2415 C.3     1  UNL1        0.0020
     21 C         148.1404  141.8217  153.6236 C.3     1  UNL1        0.0001
     22 C         148.4009  142.2321  155.0427 C.3     1  UNL1        0.0020
     23 C         147.3293  142.0682  156.0795 C.3     1  UNL1        0.0244
     24 C         140.7459  139.1734  161.0508 C.3     1  UNL1        0.1119
     25 N         143.1746  138.9225  164.1794 N.3     1  UNL1       -0.2705
     26 C         142.3890  138.0117  165.0757 C.3     1  UNL1        0.0722
     27 C         141.0557  137.4882  164.6304 C.3     1  UNL1        0.0174
     28 C         140.5080  137.8754  163.2888 C.3     1  UNL1        0.0048
     29 C         141.2935  138.7862  162.3924 C.3     1  UNL1        0.0388
     30 C         142.6268  139.3097  162.8377 C.3     1  UNL1        0.0741
     31 C         144.5079  139.4459  164.6247 C.3     1  UNL1        0.1046
     32 C         144.9243  140.8411  164.2643 C.3     1  UNL1        0.1595
     33 C         144.9403  141.9513  161.9153 C.3     1  UNL1        0.1742
     34 O         145.6104  141.1048  162.9568 O.3     1  UNL1       -0.3496
@<TRIPOS>BOND
     1    33    34    1
     2    34    32    1
     3    32    31    1
     4    31    25    1
     5    25    26    1
     6    26    27    1
     7    27    28    1
     8    28    29    1
     9    29    24    1
    10    24     1    1
    11     1     2   ar
    12     2    11    1
    13    11    12   ar
    14    12    13   ar
    15    13    14   ar
    16    14    15   ar
    17    15    16   ar
    18    16    17    1
    19     2     3   ar
    20     3     4   ar
    21     4     5   ar
    22     5     6   ar
    23     6    18    1
    24    18    19    1
    25    19    20    1
    26    20    21    1
    27    21    22    1
    28    22    23    1
    29     6     7   ar
    30     7     8   ar
    31     8     9   ar
    32     9    10    2
    33    29    30    1
    34    30    25    1
    35     9     1   ar
    36    16    11   ar
    37     8     4   ar
    38    23    18    1
