@<TRIPOS>MOLECULE
*****
 25 28 0 0 0
SMALL
GASTEIGER

@<TRIPOS>ATOM
      1 C         143.9360  142.5576  164.7192 C.3     1  UNL1        0.1118
      2 C         145.1375  141.8887  164.1200 C.3     1  UNL1        0.0261
      3 C         145.3839  141.9726  162.6428 C.3     1  UNL1        0.0068
      4 C         144.4288  142.7255  161.7647 C.3     1  UNL1        0.0277
      5 C         143.2273  143.3944  162.3639 C.2     1  UNL1       -0.0059
      6 C         142.9809  143.3104  163.8411 C.2     1  UNL1        0.0724
      7 N         141.7206  144.0652  164.1445 N.2     1  UNL1       -0.2523
      8 C         141.1881  144.6156  162.8548 C.2     1  UNL1        0.0628
      9 C         139.9756  145.4407  162.5402 C.3     1  UNL1        0.0726
     10 C         139.6942  145.8513  161.1251 C.2     1  UNL1       -0.0084
     11 C         140.6254  145.4367  160.0247 C.2     1  UNL1        0.0538
     12 CL        140.3441  145.8473  158.6096 Cl      1  UNL1       -0.0826
     13 C         141.8380  144.6116  160.3393 C.2     1  UNL1        0.0120
     14 C         142.1193  144.2010  161.7543 C.2     1  UNL1        0.0119
     15 O         141.9885  140.5496  165.8033 O.2     1  UNL1       -0.2701
     16 C         142.7159  141.4696  166.7385 C.2     1  UNL1        0.2483
     17 N         143.6896  142.4736  166.1964 N.am    1  UNL1       -0.2972
     18 H         144.1670  143.0775  166.8102 H       1  UNL1        0.1500
     19 C         142.4694  141.3856  168.2157 C.ar    1  UNL1        0.0808
     20 C         142.0858  142.6161  168.9832 C.ar    1  UNL1        0.0068
     21 C         141.8394  142.5321  170.4604 C.ar    1  UNL1        0.0003
     22 C         141.9765  141.2177  171.1702 C.ar    1  UNL1        0.0023
     23 C         142.3601  139.9874  170.4027 C.ar    1  UNL1        0.0298
     24 C         142.6065  140.0713  168.9254 C.ar    1  UNL1        0.1444
     25 F         142.9901  138.8410  168.1580 F       1  UNL1       -0.2040
@<TRIPOS>BOND
     1    15    16    2
     2    16    17   am
     3     1    17    1
     4     1     2    1
     5     2     3    1
     6     3     4    1
     7     4     5    1
     8     5     6    2
     9     6     7    1
    10     7     8    2
    11     8     9    1
    12     9    10    1
    13    10    11    2
    14    11    12    1
    15    11    13    1
    16    13    14    2
    17    16    19    1
    18    19    20   ar
    19    20    21   ar
    20    21    22   ar
    21    22    23   ar
    22    23    24   ar
    23    24    25    1
    24     6     1    1
    25    14     8    1
    26    24    19   ar
    27    14     5    1
    28    17    18    1
@<TRIPOS>MOLECULE
*****
 25 28 0 0 0
SMALL
GASTEIGER

@<TRIPOS>ATOM
      1 C         139.6430  140.1807  162.7692 C.3     1  UNL1        0.1118
      2 C         139.1174  138.8213  162.4147 C.3     1  UNL1        0.0261
      3 C         138.7359  137.8584  163.4997 C.3     1  UNL1        0.0068
      4 C         138.8799  138.2550  164.9392 C.3     1  UNL1        0.0277
      5 C         139.4055  139.6144  165.2936 C.2     1  UNL1       -0.0059
      6 C         139.7870  140.5773  164.2086 C.2     1  UNL1        0.0724
      7 N         140.2727  141.8391  164.8583 N.2     1  UNL1       -0.2523
      8 C         140.1912  141.6560  166.3448 C.2     1  UNL1        0.0628
      9 C         140.5358  142.5637  167.4882 C.3     1  UNL1        0.0726
     10 C         140.3445  142.0964  168.9008 C.2     1  UNL1       -0.0084
     11 C         139.8086  140.7215  169.1698 C.2     1  UNL1        0.0538
     12 CL        139.6173  140.2542  170.5823 Cl      1  UNL1       -0.0826
     13 C         139.4640  139.8138  168.0263 C.2     1  UNL1        0.0120
     14 C         139.6553  140.2811  166.6139 C.2     1  UNL1        0.0119
     15 O         137.6173  142.1207  161.7048 O.2     1  UNL1       -0.2701
     16 C         139.0117  142.1136  161.1519 C.2     1  UNL1        0.2483
     17 N         140.0246  141.1436  161.6841 N.am    1  UNL1       -0.2972
     18 H         140.9397  141.1390  161.3213 H       1  UNL1        0.1500
     19 C         139.3932  143.0765  160.0670 C.ar    1  UNL1        0.0808
     20 C         139.0087  142.7946  158.6447 C.ar    1  UNL1        0.0068
     21 C         139.3902  143.7576  157.5597 C.ar    1  UNL1        0.0003
     22 C         140.1562  145.0024  157.8969 C.ar    1  UNL1        0.0023
     23 C         140.5407  145.2843  159.3191 C.ar    1  UNL1        0.0298
     24 C         140.1592  144.3214  160.4042 C.ar    1  UNL1        0.1444
     25 F         140.5436  144.6033  161.8264 F       1  UNL1       -0.2040
@<TRIPOS>BOND
     1    15    16    2
     2    16    17   am
     3     1    17    1
     4     1     2    1
     5     2     3    1
     6     3     4    1
     7     4     5    1
     8     5     6    2
     9     6     7    1
    10     7     8    2
    11     8     9    1
    12     9    10    1
    13    10    11    2
    14    11    12    1
    15    11    13    1
    16    13    14    2
    17    16    19    1
    18    19    20   ar
    19    20    21   ar
    20    21    22   ar
    21    22    23   ar
    22    23    24   ar
    23    24    25    1
    24     6     1    1
    25    14     8    1
    26    24    19   ar
    27    14     5    1
    28    17    18    1
@<TRIPOS>MOLECULE
*****
 25 28 0 0 0
SMALL
GASTEIGER

@<TRIPOS>ATOM
      1 C         139.5169  139.3666  164.7708 C.3     1  UNL1        0.1118
      2 C         138.2689  138.6470  165.1886 C.3     1  UNL1        0.0261
      3 C         137.8570  138.6355  166.6309 C.3     1  UNL1        0.0068
      4 C         138.6930  139.3437  167.6553 C.3     1  UNL1        0.0277
      5 C         139.9410  140.0633  167.2375 C.2     1  UNL1       -0.0059
      6 C         140.3530  140.0748  165.7953 C.2     1  UNL1        0.0724
      7 N         141.6247  140.8624  165.6827 N.2     1  UNL1       -0.2523
      8 C         141.9986  141.3376  167.0553 C.2     1  UNL1        0.0628
      9 C         143.1522  142.1563  167.5544 C.3     1  UNL1        0.0726
     10 C         143.2652  142.4811  169.0145 C.2     1  UNL1       -0.0084
     11 C         142.2247  141.9873  169.9755 C.2     1  UNL1        0.0538
     12 CL        142.3377  142.3121  171.4355 Cl      1  UNL1       -0.0826
     13 C         141.0711  141.1686  169.4763 C.2     1  UNL1        0.0120
     14 C         140.9581  140.8438  168.0163 C.2     1  UNL1        0.0119
     15 O         140.9976  137.0273  163.6152 O.2     1  UNL1       -0.2701
     16 C         140.6693  138.2084  162.7507 C.2     1  UNL1        0.2483
     17 N         139.9290  139.3781  163.3285 N.am    1  UNL1       -0.2972
     18 H         139.7135  140.1532  162.7612 H       1  UNL1        0.1500
     19 C         141.0813  138.2198  161.3085 C.ar    1  UNL1        0.0808
     20 C         140.0728  138.5317  160.2428 C.ar    1  UNL1        0.0068
     21 C         140.4848  138.5431  158.8005 C.ar    1  UNL1        0.0003
     22 C         141.9053  138.2427  158.4239 C.ar    1  UNL1        0.0023
     23 C         142.9138  137.9308  159.4896 C.ar    1  UNL1        0.0298
     24 C         142.5018  137.9194  160.9319 C.ar    1  UNL1        0.1444
     25 F         143.5103  137.6076  161.9975 F       1  UNL1       -0.2040
@<TRIPOS>BOND
     1    15    16    2
     2    16    17   am
     3     1    17    1
     4     1     2    1
     5     2     3    1
     6     3     4    1
     7     4     5    1
     8     5     6    2
     9     6     7    1
    10     7     8    2
    11     8     9    1
    12     9    10    1
    13    10    11    2
    14    11    12    1
    15    11    13    1
    16    13    14    2
    17    16    19    1
    18    19    20   ar
    19    20    21   ar
    20    21    22   ar
    21    22    23   ar
    22    23    24   ar
    23    24    25    1
    24     6     1    1
    25    14     8    1
    26    24    19   ar
    27    14     5    1
    28    17    18    1
@<TRIPOS>MOLECULE
*****
 25 28 0 0 0
SMALL
GASTEIGER

@<TRIPOS>ATOM
      1 C         139.6182  143.5024  165.0349 C.3     1  UNL1        0.1118
      2 C         138.2276  143.9377  164.6789 C.3     1  UNL1        0.0261
      3 C         137.8730  144.2196  163.2490 C.3     1  UNL1        0.0068
      4 C         138.9090  144.0662  162.1751 C.3     1  UNL1        0.0277
      5 C         140.2995  143.6310  162.5311 C.2     1  UNL1       -0.0059
      6 C         140.6541  143.3491  163.9611 C.2     1  UNL1        0.0724
      7 N         142.0962  142.9387  164.0088 N.2     1  UNL1       -0.2523
      8 C         142.6328  142.9670  162.6084 C.2     1  UNL1        0.0628
      9 C         143.9890  142.6585  162.0467 C.3     1  UNL1        0.0726
     10 C         144.2349  142.7778  160.5718 C.2     1  UNL1       -0.0084
     11 C         143.1245  143.2056  159.6585 C.2     1  UNL1        0.0538
     12 CL        143.3703  143.3250  158.1836 Cl      1  UNL1       -0.0826
     13 C         141.7682  143.5142  160.2202 C.2     1  UNL1        0.0120
     14 C         141.5224  143.3948  161.6951 C.2     1  UNL1        0.0119
     15 O         140.0534  140.6766  165.9433 O.2     1  UNL1       -0.2701
     16 C         140.1905  141.8076  166.9191 C.2     1  UNL1        0.2483
     17 N         139.9729  143.2205  166.4649 N.am    1  UNL1       -0.2972
     18 H         140.0628  143.9628  167.1054 H       1  UNL1        0.1500
     19 C         140.5451  141.5256  168.3490 C.ar    1  UNL1        0.0808
     20 C         141.6471  142.2958  169.0144 C.ar    1  UNL1        0.0068
     21 C         142.0018  142.0138  170.4443 C.ar    1  UNL1        0.0003
     22 C         141.2545  140.9617  171.2089 C.ar    1  UNL1        0.0023
     23 C         140.1526  140.1916  170.5437 C.ar    1  UNL1        0.0298
     24 C         139.7979  140.4735  169.1137 C.ar    1  UNL1        0.1444
     25 F         138.6959  139.7034  168.4484 F       1  UNL1       -0.2040
@<TRIPOS>BOND
     1    15    16    2
     2    16    17   am
     3     1    17    1
     4     1     2    1
     5     2     3    1
     6     3     4    1
     7     4     5    1
     8     5     6    2
     9     6     7    1
    10     7     8    2
    11     8     9    1
    12     9    10    1
    13    10    11    2
    14    11    12    1
    15    11    13    1
    16    13    14    2
    17    16    19    1
    18    19    20   ar
    19    20    21   ar
    20    21    22   ar
    21    22    23   ar
    22    23    24   ar
    23    24    25    1
    24     6     1    1
    25    14     8    1
    26    24    19   ar
    27    14     5    1
    28    17    18    1
@<TRIPOS>MOLECULE
*****
 25 28 0 0 0
SMALL
GASTEIGER

@<TRIPOS>ATOM
      1 C         139.3901  140.8755  164.4432 C.3     1  UNL1        0.1118
      2 C         137.9823  141.3311  164.1971 C.3     1  UNL1        0.0261
      3 C         137.3607  141.1486  162.8443 C.3     1  UNL1        0.0068
      4 C         138.1467  140.5104  161.7376 C.3     1  UNL1        0.0277
      5 C         139.5545  140.0548  161.9837 C.2     1  UNL1       -0.0059
      6 C         140.1761  140.2373  163.3365 C.2     1  UNL1        0.0724
      7 N         141.5729  139.6930  163.2821 N.2     1  UNL1       -0.2523
      8 C         141.8145  139.1742  161.8956 C.2     1  UNL1        0.0628
      9 C         143.0091  138.5270  161.2600 C.3     1  UNL1        0.0726
     10 C         142.9564  138.1034  159.8220 C.2     1  UNL1       -0.0084
     11 C         141.7089  138.3270  159.0195 C.2     1  UNL1        0.0538
     12 CL        141.6561  137.9034  157.5816 Cl      1  UNL1       -0.0826
     13 C         140.5142  138.9742  159.6551 C.2     1  UNL1        0.0120
     14 C         140.5670  139.3978  161.0931 C.2     1  UNL1        0.0119
     15 O         140.6294  143.5057  165.1820 O.2     1  UNL1       -0.2701
     16 C         140.6315  142.3731  166.1655 C.2     1  UNL1        0.2483
     17 N         140.0118  141.0580  165.7961 N.am    1  UNL1       -0.2972
     18 H         140.0132  140.3146  166.4416 H       1  UNL1        0.1500
     19 C         141.2532  142.5556  167.5183 C.ar    1  UNL1        0.0808
     20 C         140.4468  143.1360  168.6422 C.ar    1  UNL1        0.0068
     21 C         141.0685  143.3185  169.9950 C.ar    1  UNL1        0.0003
     22 C         142.4966  142.9207  170.2240 C.ar    1  UNL1        0.0023
     23 C         143.3029  142.3404  169.1002 C.ar    1  UNL1        0.0298
     24 C         142.6812  142.1578  167.7473 C.ar    1  UNL1        0.1444
     25 F         143.4875  141.5775  166.6235 F       1  UNL1       -0.2040
@<TRIPOS>BOND
     1    15    16    2
     2    16    17   am
     3     1    17    1
     4     1     2    1
     5     2     3    1
     6     3     4    1
     7     4     5    1
     8     5     6    2
     9     6     7    1
    10     7     8    2
    11     8     9    1
    12     9    10    1
    13    10    11    2
    14    11    12    1
    15    11    13    1
    16    13    14    2
    17    16    19    1
    18    19    20   ar
    19    20    21   ar
    20    21    22   ar
    21    22    23   ar
    22    23    24   ar
    23    24    25    1
    24     6     1    1
    25    14     8    1
    26    24    19   ar
    27    14     5    1
    28    17    18    1
@<TRIPOS>MOLECULE
*****
 25 28 0 0 0
SMALL
GASTEIGER

@<TRIPOS>ATOM
      1 C         142.9659  142.5498  164.5271 C.3     1  UNL1        0.1118
      2 C         143.6274  143.8817  164.3316 C.3     1  UNL1        0.0261
      3 C         144.1544  144.2663  162.9810 C.3     1  UNL1        0.0068
      4 C         144.0200  143.3189  161.8258 C.3     1  UNL1        0.0277
      5 C         143.3584  141.9870  162.0213 C.2     1  UNL1       -0.0059
      6 C         142.8314  141.6024  163.3720 C.2     1  UNL1        0.0724
      7 N         142.2314  140.2319  163.2625 N.2     1  UNL1       -0.2523
      8 C         142.3877  139.7695  161.8441 C.2     1  UNL1        0.0628
      9 C         141.9857  138.5010  161.1519 C.3     1  UNL1        0.0726
     10 C         142.2802  138.3170  159.6926 C.2     1  UNL1       -0.0084
     11 C         142.9768  139.4017  158.9256 C.2     1  UNL1        0.0538
     12 CL        143.2714  139.2178  157.4663 Cl      1  UNL1       -0.0826
     13 C         143.3788  140.6703  159.6178 C.2     1  UNL1        0.0120
     14 C         143.0842  140.8542  161.0771 C.2     1  UNL1        0.0119
     15 O         140.1456  143.2341  165.2872 O.2     1  UNL1       -0.2701
     16 C         141.0286  142.5073  166.2579 C.2     1  UNL1        0.2483
     17 N         142.4388  142.1652  165.8778 N.am    1  UNL1       -0.2972
     18 H         143.0184  141.6882  166.5149 H       1  UNL1        0.1500
     19 C         140.5015  142.1227  167.6085 C.ar    1  UNL1        0.0808
     20 C         140.5440  143.1082  168.7386 C.ar    1  UNL1        0.0068
     21 C         140.0168  142.7236  170.0892 C.ar    1  UNL1        0.0003
     22 C         139.4473  141.3536  170.3098 C.ar    1  UNL1        0.0023
     23 C         139.4049  140.3681  169.1798 C.ar    1  UNL1        0.0298
     24 C         139.9320  140.7527  167.8291 C.ar    1  UNL1        0.1444
     25 F         139.8895  139.7673  166.6990 F       1  UNL1       -0.2040
@<TRIPOS>BOND
     1    15    16    2
     2    16    17   am
     3     1    17    1
     4     1     2    1
     5     2     3    1
     6     3     4    1
     7     4     5    1
     8     5     6    2
     9     6     7    1
    10     7     8    2
    11     8     9    1
    12     9    10    1
    13    10    11    2
    14    11    12    1
    15    11    13    1
    16    13    14    2
    17    16    19    1
    18    19    20   ar
    19    20    21   ar
    20    21    22   ar
    21    22    23   ar
    22    23    24   ar
    23    24    25    1
    24     6     1    1
    25    14     8    1
    26    24    19   ar
    27    14     5    1
    28    17    18    1
@<TRIPOS>MOLECULE
*****
 25 28 0 0 0
SMALL
GASTEIGER

@<TRIPOS>ATOM
      1 C         143.1790  141.8137  163.2579 C.3     1  UNL1        0.1118
      2 C         144.3019  142.7174  163.6731 C.3     1  UNL1        0.0261
      3 C         144.4461  143.1228  165.1101 C.3     1  UNL1        0.0068
      4 C         143.4674  142.6245  166.1317 C.3     1  UNL1        0.0277
      5 C         142.3445  141.7208  165.7165 C.2     1  UNL1       -0.0059
      6 C         142.2004  141.3154  164.2796 C.2     1  UNL1        0.0724
      7 N         141.0018  140.4202  164.1684 N.2     1  UNL1       -0.2523
      8 C         140.4053  140.2724  165.5368 C.2     1  UNL1        0.0628
      9 C         139.2137  139.5097  166.0351 C.3     1  UNL1        0.0726
     10 C         138.8519  139.5508  167.4903 C.2     1  UNL1       -0.0084
     11 C         139.6817  140.3546  168.4471 C.2     1  UNL1        0.0538
     12 CL        139.3200  140.3957  169.9022 Cl      1  UNL1       -0.0826
     13 C         140.8734  141.1173  167.9486 C.2     1  UNL1        0.0120
     14 C         141.2351  141.0762  166.4935 C.2     1  UNL1        0.0119
     15 O         144.2536  139.1710  162.3299 O.2     1  UNL1       -0.2701
     16 C         143.5721  140.0869  161.3569 C.2     1  UNL1        0.2483
     17 N         143.0348  141.4083  161.8209 N.am    1  UNL1       -0.2972
     18 H         142.5875  142.0094  161.1823 H       1  UNL1        0.1500
     19 C         143.4279  139.6815  159.9200 C.ar    1  UNL1        0.0808
     20 C         143.8912  140.6027  158.8306 C.ar    1  UNL1        0.0068
     21 C         143.7470  140.1973  157.3937 C.ar    1  UNL1        0.0003
     22 C         143.1396  138.8706  157.0460 C.ar    1  UNL1        0.0023
     23 C         142.6763  137.9493  158.1353 C.ar    1  UNL1        0.0298
     24 C         142.8205  138.3547  159.5723 C.ar    1  UNL1        0.1444
     25 F         142.3572  137.4335  160.6616 F       1  UNL1       -0.2040
@<TRIPOS>BOND
     1    15    16    2
     2    16    17   am
     3     1    17    1
     4     1     2    1
     5     2     3    1
     6     3     4    1
     7     4     5    1
     8     5     6    2
     9     6     7    1
    10     7     8    2
    11     8     9    1
    12     9    10    1
    13    10    11    2
    14    11    12    1
    15    11    13    1
    16    13    14    2
    17    16    19    1
    18    19    20   ar
    19    20    21   ar
    20    21    22   ar
    21    22    23   ar
    22    23    24   ar
    23    24    25    1
    24     6     1    1
    25    14     8    1
    26    24    19   ar
    27    14     5    1
    28    17    18    1
@<TRIPOS>MOLECULE
*****
 25 28 0 0 0
SMALL
GASTEIGER

@<TRIPOS>ATOM
      1 C         140.3314  143.4332  163.0264 C.3     1  UNL1        0.1118
      2 C         139.4595  144.5047  163.6110 C.3     1  UNL1        0.0261
      3 C         139.2088  144.5440  165.0894 C.3     1  UNL1        0.0068
      4 C         139.8300  143.5118  165.9831 C.3     1  UNL1        0.0277
      5 C         140.7018  142.4403  165.3985 C.2     1  UNL1       -0.0059
      6 C         140.9525  142.4010  163.9202 C.2     1  UNL1        0.0724
      7 N         141.8498  141.2338  163.6330 N.2     1  UNL1       -0.2523
      8 C         142.1537  140.5517  164.9339 C.2     1  UNL1        0.0628
      9 C         142.9847  139.3479  165.2659 C.3     1  UNL1        0.0726
     10 C         143.1063  138.8898  166.6891 C.2     1  UNL1       -0.0084
     11 C         142.3968  139.6354  167.7803 C.2     1  UNL1        0.0538
     12 CL        142.5184  139.1774  169.2034 Cl      1  UNL1       -0.0826
     13 C         141.5657  140.8393  167.4482 C.2     1  UNL1        0.0120
     14 C         141.4442  141.2974  166.0250 C.2     1  UNL1        0.0119
     15 O         142.8177  144.6718  161.8932 O.2     1  UNL1       -0.2701
     16 C         141.8252  144.0132  160.9814 C.2     1  UNL1        0.2483
     17 N         140.5821  143.3939  161.5480 N.am    1  UNL1       -0.2972
     18 H         139.9307  142.9616  160.9496 H       1  UNL1        0.1500
     19 C         142.0760  143.9739  159.5031 C.ar    1  UNL1        0.0808
     20 C         143.1609  143.0984  158.9494 C.ar    1  UNL1        0.0068
     21 C         143.4117  143.0591  157.4710 C.ar    1  UNL1        0.0003
     22 C         142.5776  143.8953  156.5463 C.ar    1  UNL1        0.0023
     23 C         141.4927  144.7708  157.1000 C.ar    1  UNL1        0.0298
     24 C         141.2419  144.8101  158.5784 C.ar    1  UNL1        0.1444
     25 F         140.1570  145.6856  159.1320 F       1  UNL1       -0.2040
@<TRIPOS>BOND
     1    15    16    2
     2    16    17   am
     3     1    17    1
     4     1     2    1
     5     2     3    1
     6     3     4    1
     7     4     5    1
     8     5     6    2
     9     6     7    1
    10     7     8    2
    11     8     9    1
    12     9    10    1
    13    10    11    2
    14    11    12    1
    15    11    13    1
    16    13    14    2
    17    16    19    1
    18    19    20   ar
    19    20    21   ar
    20    21    22   ar
    21    22    23   ar
    22    23    24   ar
    23    24    25    1
    24     6     1    1
    25    14     8    1
    26    24    19   ar
    27    14     5    1
    28    17    18    1
@<TRIPOS>MOLECULE
*****
 25 28 0 0 0
SMALL
GASTEIGER

@<TRIPOS>ATOM
      1 C         143.3381  141.4335  164.4731 C.3     1  UNL1        0.1118
      2 C         144.8204  141.2185  164.3918 C.3     1  UNL1        0.0261
      3 C         145.5828  141.6966  163.1919 C.3     1  UNL1        0.0068
      4 C         144.8631  142.3898  162.0732 C.3     1  UNL1        0.0277
      5 C         143.3808  142.6048  162.1544 C.2     1  UNL1       -0.0059
      6 C         142.6183  142.1266  163.3544 C.2     1  UNL1        0.0724
      7 N         141.1735  142.4775  163.1556 N.2     1  UNL1       -0.2523
      8 C         141.0431  143.1725  161.8328 C.2     1  UNL1        0.0628
      9 C         139.8584  143.7439  161.1117 C.3     1  UNL1        0.0726
     10 C         140.0379  144.3940  159.7717 C.2     1  UNL1       -0.0084
     11 C         141.4021  144.4726  159.1530 C.2     1  UNL1        0.0538
     12 CL        141.5816  145.1227  157.8131 Cl      1  UNL1       -0.0826
     13 C         142.5868  143.9012  159.8742 C.2     1  UNL1        0.0120
     14 C         142.4073  143.2511  161.2140 C.2     1  UNL1        0.0119
     15 O         143.6284  142.8550  167.0989 O.2     1  UNL1       -0.2701
     16 C         142.7207  141.6661  166.9860 C.2     1  UNL1        0.2483
     17 N         142.5755  140.9553  165.6731 N.am    1  UNL1       -0.2972
     18 H         141.9798  140.1751  165.5990 H       1  UNL1        0.1500
     19 C         141.9582  141.1880  168.1860 C.ar    1  UNL1        0.0808
     20 C         142.3892  139.9417  168.9009 C.ar    1  UNL1        0.0068
     21 C         141.6267  139.4637  170.1009 C.ar    1  UNL1        0.0003
     22 C         140.4332  140.2318  170.5860 C.ar    1  UNL1        0.0023
     23 C         140.0021  141.4780  169.8712 C.ar    1  UNL1        0.0298
     24 C         140.7646  141.9562  168.6711 C.ar    1  UNL1        0.1444
     25 F         140.3336  143.2024  167.9563 F       1  UNL1       -0.2040
@<TRIPOS>BOND
     1    15    16    2
     2    16    17   am
     3     1    17    1
     4     1     2    1
     5     2     3    1
     6     3     4    1
     7     4     5    1
     8     5     6    2
     9     6     7    1
    10     7     8    2
    11     8     9    1
    12     9    10    1
    13    10    11    2
    14    11    12    1
    15    11    13    1
    16    13    14    2
    17    16    19    1
    18    19    20   ar
    19    20    21   ar
    20    21    22   ar
    21    22    23   ar
    22    23    24   ar
    23    24    25    1
    24     6     1    1
    25    14     8    1
    26    24    19   ar
    27    14     5    1
    28    17    18    1
