@<TRIPOS>MOLECULE
*****
 30 34 0 0 0
SMALL
GASTEIGER

@<TRIPOS>ATOM
      1 O         138.8160  139.5169  168.5842 O.2     1  UNL1       -0.2751
      2 C         140.2500  139.8669  168.3174 C.2     1  UNL1        0.2220
      3 N         141.3542  139.8950  169.3322 N.am    1  UNL1       -0.3040
      4 C         142.6182  140.2958  168.6309 C.3     1  UNL1        0.0941
      5 C         142.2951  140.5154  167.1826 C.3     1  UNL1        0.0501
      6 C         140.8314  140.2503  166.9888 C.3     1  UNL1        0.0768
      7 C         141.5508  140.6477  165.7341 C.3     1  UNL1        0.0264
      8 C         140.8004  140.7483  164.4392 C.3     1  UNL1        0.0728
      9 N         139.3306  140.4516  164.3991 N.3     1  UNL1       -0.2696
     10 C         138.6112  140.0542  165.6539 C.3     1  UNL1        0.0728
     11 C         139.3616  139.9535  166.9488 C.3     1  UNL1        0.0264
     12 H         141.2650  139.6870  170.2904 H       1  UNL1        0.1494
     13 C         143.2652  140.9276  166.1155 C.ar    1  UNL1       -0.0204
     14 C         143.9451  139.8861  165.2771 C.ar    1  UNL1       -0.0042
     15 C         144.9153  140.2983  164.2099 C.ar    1  UNL1       -0.0003
     16 C         145.2056  141.7521  163.9812 C.ar    1  UNL1       -0.0000
     17 C         144.5256  142.7937  164.8197 C.ar    1  UNL1       -0.0003
     18 C         143.5555  142.3814  165.8867 C.ar    1  UNL1       -0.0042
     19 C         138.5802  140.5522  163.1042 C.3     1  UNL1        0.0919
     20 C         138.7058  139.0617  163.2173 C.3     1  UNL1        0.0239
     21 C         138.1280  138.1774  162.1524 C.3     1  UNL1        0.0338
     22 C         137.4245  138.7835  160.9744 C.3     1  UNL1        0.1423
     23 O         137.2988  140.2739  160.8613 O.3     1  UNL1       -0.3520
     24 C         137.8766  141.1583  161.9262 C.3     1  UNL1        0.1608
     25 C         138.7151  142.0076  163.4408 C.ar    1  UNL1       -0.0069
     26 C         137.7680  142.6430  164.4152 C.ar    1  UNL1       -0.0029
     27 C         137.9030  144.0985  164.7518 C.ar    1  UNL1       -0.0003
     28 C         138.9850  144.9187  164.1141 C.ar    1  UNL1       -0.0000
     29 C         139.9320  144.2833  163.1398 C.ar    1  UNL1       -0.0003
     30 C         139.7971  142.8278  162.8031 C.ar    1  UNL1       -0.0029
@<TRIPOS>BOND
     1     1     2    2
     2     2     3   am
     3     3     4    1
     4     4     5    1
     5     5    13    1
     6    13    14   ar
     7    14    15   ar
     8    15    16   ar
     9    16    17   ar
    10    17    18   ar
    11     5     6    1
    12     6     7    1
    13     7     8    1
    14     8     9    1
    15     9    19    1
    16    19    25    1
    17    25    26   ar
    18    26    27   ar
    19    27    28   ar
    20    28    29   ar
    21    29    30   ar
    22    19    20    1
    23    20    21    1
    24    21    22    1
    25    22    23    1
    26    23    24    1
    27     9    10    1
    28    10    11    1
    29     6     2    1
    30    24    19    1
    31    18    13   ar
    32    11     6    1
    33    30    25   ar
    34     3    12    1
@<TRIPOS>MOLECULE
*****
 30 34 0 0 0
SMALL
GASTEIGER

@<TRIPOS>ATOM
      1 O         138.7307  145.1378  165.3759 O.2     1  UNL1       -0.2751
      2 C         138.5440  144.1524  164.2606 C.2     1  UNL1        0.2220
      3 N         137.7516  144.3789  163.0074 N.am    1  UNL1       -0.3040
      4 C         137.8348  143.1338  162.1749 C.3     1  UNL1        0.0941
      5 C         138.6787  142.1378  162.9137 C.3     1  UNL1        0.0501
      6 C         139.1171  142.7673  164.2028 C.3     1  UNL1        0.0768
      7 C         139.6192  141.3677  164.0055 C.3     1  UNL1        0.0264
      8 C         140.4795  140.7250  165.0528 C.3     1  UNL1        0.0728
      9 N         140.8376  141.4819  166.2974 N.3     1  UNL1       -0.2696
     10 C         140.3354  142.8815  166.4946 C.3     1  UNL1        0.0728
     11 C         139.4751  143.5242  165.4474 C.3     1  UNL1        0.0264
     12 H         137.2627  145.2005  162.7724 H       1  UNL1        0.1494
     13 C         139.0237  140.7551  162.4457 C.ar    1  UNL1       -0.0204
     14 C         140.2748  140.5224  161.6516 C.ar    1  UNL1       -0.0042
     15 C         140.6198  139.1397  161.1836 C.ar    1  UNL1       -0.0003
     16 C         139.7137  137.9897  161.5096 C.ar    1  UNL1       -0.0000
     17 C         138.4625  138.2223  162.3037 C.ar    1  UNL1       -0.0003
     18 C         138.1176  139.6050  162.7717 C.ar    1  UNL1       -0.0042
     19 C         141.6979  140.8392  167.3447 C.3     1  UNL1        0.0919
     20 C         140.3538  140.7141  167.9989 C.3     1  UNL1        0.0239
     21 C         140.2331  140.0673  169.3469 C.3     1  UNL1        0.0338
     22 C         141.4563  139.5455  170.0407 C.3     1  UNL1        0.1423
     23 O         142.8004  139.6706  169.3864 O.3     1  UNL1       -0.3520
     24 C         142.9211  140.3173  168.0385 C.3     1  UNL1        0.1608
     25 C         142.7431  141.1874  166.3268 C.ar    1  UNL1       -0.0069
     26 C         143.2648  140.1327  165.3965 C.ar    1  UNL1       -0.0029
     27 C         144.3101  140.4810  164.3786 C.ar    1  UNL1       -0.0003
     28 C         144.8336  141.8839  164.2909 C.ar    1  UNL1       -0.0000
     29 C         144.3119  142.9385  165.2212 C.ar    1  UNL1       -0.0003
     30 C         143.2666  142.5903  166.2391 C.ar    1  UNL1       -0.0029
@<TRIPOS>BOND
     1     1     2    2
     2     2     3   am
     3     3     4    1
     4     4     5    1
     5     5    13    1
     6    13    14   ar
     7    14    15   ar
     8    15    16   ar
     9    16    17   ar
    10    17    18   ar
    11     5     6    1
    12     6     7    1
    13     7     8    1
    14     8     9    1
    15     9    19    1
    16    19    25    1
    17    25    26   ar
    18    26    27   ar
    19    27    28   ar
    20    28    29   ar
    21    29    30   ar
    22    19    20    1
    23    20    21    1
    24    21    22    1
    25    22    23    1
    26    23    24    1
    27     9    10    1
    28    10    11    1
    29     6     2    1
    30    24    19    1
    31    18    13   ar
    32    11     6    1
    33    30    25   ar
    34     3    12    1
@<TRIPOS>MOLECULE
*****
 30 34 0 0 0
SMALL
GASTEIGER

@<TRIPOS>ATOM
      1 O         145.3035  142.5144  163.1972 O.2     1  UNL1       -0.2751
      2 C         143.9540  143.0879  162.8812 C.2     1  UNL1        0.2220
      3 N         143.6143  143.9413  161.6953 N.am    1  UNL1       -0.3040
      4 C         142.1575  144.2895  161.7769 C.3     1  UNL1        0.0941
      5 C         141.5969  143.6514  163.0133 C.3     1  UNL1        0.0501
      6 C         142.7072  142.9088  163.6958 C.3     1  UNL1        0.0768
      7 C         141.3876  142.8183  164.4032 C.3     1  UNL1        0.0264
      8 C         141.2715  142.0342  165.6767 C.3     1  UNL1        0.0728
      9 N         142.4750  141.3406  166.2427 N.3     1  UNL1       -0.2696
     10 C         143.7946  141.4310  165.5353 C.3     1  UNL1        0.0728
     11 C         143.9107  142.2151  164.2619 C.3     1  UNL1        0.0264
     12 H         144.2379  144.2233  160.9877 H       1  UNL1        0.1494
     13 C         140.1756  143.7403  163.4845 C.ar    1  UNL1       -0.0204
     14 C         139.7927  144.7486  164.5269 C.ar    1  UNL1       -0.0042
     15 C         138.3714  144.8375  164.9980 C.ar    1  UNL1       -0.0003
     16 C         137.3330  143.9181  164.4267 C.ar    1  UNL1       -0.0000
     17 C         137.7159  142.9097  163.3842 C.ar    1  UNL1       -0.0003
     18 C         139.1372  142.8209  162.9131 C.ar    1  UNL1       -0.0042
     19 C         142.3589  140.5565  167.5162 C.3     1  UNL1        0.0919
     20 C         143.0603  141.7802  168.0268 C.3     1  UNL1        0.0239
     21 C         143.4159  141.8894  169.4799 C.3     1  UNL1        0.0338
     22 C         143.0703  140.7749  170.4225 C.3     1  UNL1        0.1423
     23 O         142.3689  139.5512  169.9119 O.3     1  UNL1       -0.3520
     24 C         142.0132  139.4420  168.4588 C.3     1  UNL1        0.1608
     25 C         141.6979  139.6051  166.5634 C.ar    1  UNL1       -0.0069
     26 C         140.2035  139.5903  166.4341 C.ar    1  UNL1       -0.0029
     27 C         139.5426  138.6389  165.4813 C.ar    1  UNL1       -0.0003
     28 C         140.3759  137.7023  164.6577 C.ar    1  UNL1       -0.0000
     29 C         141.8702  137.7171  164.7869 C.ar    1  UNL1       -0.0003
     30 C         142.5312  138.6685  165.7398 C.ar    1  UNL1       -0.0029
@<TRIPOS>BOND
     1     1     2    2
     2     2     3   am
     3     3     4    1
     4     4     5    1
     5     5    13    1
     6    13    14   ar
     7    14    15   ar
     8    15    16   ar
     9    16    17   ar
    10    17    18   ar
    11     5     6    1
    12     6     7    1
    13     7     8    1
    14     8     9    1
    15     9    19    1
    16    19    25    1
    17    25    26   ar
    18    26    27   ar
    19    27    28   ar
    20    28    29   ar
    21    29    30   ar
    22    19    20    1
    23    20    21    1
    24    21    22    1
    25    22    23    1
    26    23    24    1
    27     9    10    1
    28    10    11    1
    29     6     2    1
    30    24    19    1
    31    18    13   ar
    32    11     6    1
    33    30    25   ar
    34     3    12    1
@<TRIPOS>MOLECULE
*****
 30 34 0 0 0
SMALL
GASTEIGER

@<TRIPOS>ATOM
      1 O         145.2252  138.9423  164.9211 O.2     1  UNL1       -0.2751
      2 C         144.8602  140.1890  164.1712 C.2     1  UNL1        0.2220
      3 N         145.7089  140.8823  163.1471 N.am    1  UNL1       -0.3040
      4 C         144.9556  142.0832  162.6567 C.3     1  UNL1        0.0941
      5 C         143.6411  142.1320  163.3779 C.3     1  UNL1        0.0501
      6 C         143.5821  140.9614  164.3139 C.3     1  UNL1        0.0768
      7 C         142.3611  141.8319  164.3480 C.3     1  UNL1        0.0264
      8 C         141.2239  141.4931  165.2656 C.3     1  UNL1        0.0728
      9 N         141.3077  140.2837  166.1490 N.3     1  UNL1       -0.2696
     10 C         142.5288  139.4132  166.1149 C.3     1  UNL1        0.0728
     11 C         143.6660  139.7520  165.1973 C.3     1  UNL1        0.0264
     12 H         146.6034  140.5989  162.8490 H       1  UNL1        0.1494
     13 C         142.5732  143.1694  163.1951 C.ar    1  UNL1       -0.0204
     14 C         142.6275  144.4477  163.9780 C.ar    1  UNL1       -0.0042
     15 C         141.5596  145.4850  163.7952 C.ar    1  UNL1       -0.0003
     16 C         140.4374  145.2441  162.8295 C.ar    1  UNL1       -0.0000
     17 C         140.3831  143.9657  162.0465 C.ar    1  UNL1       -0.0003
     18 C         141.4510  142.9284  162.2293 C.ar    1  UNL1       -0.0042
     19 C         140.1705  139.9450  167.0666 C.3     1  UNL1        0.0919
     20 C         139.7336  139.2164  165.8303 C.3     1  UNL1        0.0239
     21 C         138.4484  138.4429  165.8302 C.3     1  UNL1        0.0338
     22 C         137.6001  138.3980  167.0664 C.3     1  UNL1        0.1423
     23 O         138.0369  139.1266  168.3027 O.3     1  UNL1       -0.3520
     24 C         139.3221  139.9000  168.3028 C.3     1  UNL1        0.1608
     25 C         141.0022  140.7911  167.9842 C.ar    1  UNL1       -0.0069
     26 C         140.5939  142.2045  168.2770 C.ar    1  UNL1       -0.0029
     27 C         141.4258  143.0506  169.1946 C.ar    1  UNL1       -0.0003
     28 C         142.6659  142.4835  169.8194 C.ar    1  UNL1       -0.0000
     29 C         143.0742  141.0703  169.5266 C.ar    1  UNL1       -0.0003
     30 C         142.2424  140.2240  168.6090 C.ar    1  UNL1       -0.0029
@<TRIPOS>BOND
     1     1     2    2
     2     2     3   am
     3     3     4    1
     4     4     5    1
     5     5    13    1
     6    13    14   ar
     7    14    15   ar
     8    15    16   ar
     9    16    17   ar
    10    17    18   ar
    11     5     6    1
    12     6     7    1
    13     7     8    1
    14     8     9    1
    15     9    19    1
    16    19    25    1
    17    25    26   ar
    18    26    27   ar
    19    27    28   ar
    20    28    29   ar
    21    29    30   ar
    22    19    20    1
    23    20    21    1
    24    21    22    1
    25    22    23    1
    26    23    24    1
    27     9    10    1
    28    10    11    1
    29     6     2    1
    30    24    19    1
    31    18    13   ar
    32    11     6    1
    33    30    25   ar
    34     3    12    1
@<TRIPOS>MOLECULE
*****
 30 34 0 0 0
SMALL
GASTEIGER

@<TRIPOS>ATOM
      1 O         136.7026  141.7559  162.8050 O.2     1  UNL1       -0.2751
      2 C         137.9622  142.3831  162.2853 C.2     1  UNL1        0.2220
      3 N         138.1467  142.9980  160.9296 N.am    1  UNL1       -0.3040
      4 C         139.5570  143.5004  160.8366 C.3     1  UNL1        0.0941
      5 C         140.2441  143.1960  162.1348 C.3     1  UNL1        0.0501
      6 C         139.2585  142.5055  163.0302 C.3     1  UNL1        0.0768
      7 C         140.6119  142.6990  163.6472 C.3     1  UNL1        0.0264
      8 C         140.8761  142.2157  165.0424 C.3     1  UNL1        0.0728
      9 N         139.7869  141.5389  165.8206 N.3     1  UNL1       -0.2696
     10 C         138.4335  141.3454  165.2036 C.3     1  UNL1        0.0728
     11 C         138.1693  141.8287  163.8084 C.3     1  UNL1        0.0264
     12 H         137.4623  143.0608  160.2247 H       1  UNL1        0.1494
     13 C         141.6670  143.5245  162.4775 C.ar    1  UNL1       -0.0204
     14 C         142.7663  142.5733  162.1078 C.ar    1  UNL1       -0.0042
     15 C         144.1892  142.9018  162.4504 C.ar    1  UNL1       -0.0003
     16 C         144.5128  144.1816  163.1628 C.ar    1  UNL1       -0.0000
     17 C         143.4135  145.1329  163.5324 C.ar    1  UNL1       -0.0003
     18 C         141.9907  144.8043  163.1898 C.ar    1  UNL1       -0.0042
     19 C         140.0512  141.0556  167.2158 C.3     1  UNL1        0.0919
     20 C         140.3527  142.5154  167.3843 C.3     1  UNL1        0.0239
     21 C         140.7819  143.0431  168.7211 C.3     1  UNL1        0.0338
     22 C         140.9096  142.1113  169.8895 C.3     1  UNL1        0.1423
     23 O         140.6080  140.6515  169.7211 O.3     1  UNL1       -0.3520
     24 C         140.1788  140.1237  168.3843 C.3     1  UNL1        0.1608
     25 C         139.6578  139.7638  166.5628 C.ar    1  UNL1       -0.0069
     26 C         138.3800  139.0834  166.9557 C.ar    1  UNL1       -0.0029
     27 C         137.9868  137.7916  166.3026 C.ar    1  UNL1       -0.0003
     28 C         138.8713  137.1801  165.2568 C.ar    1  UNL1       -0.0000
     29 C         140.1489  137.8604  164.8640 C.ar    1  UNL1       -0.0003
     30 C         140.5423  139.1523  165.5170 C.ar    1  UNL1       -0.0029
@<TRIPOS>BOND
     1     1     2    2
     2     2     3   am
     3     3     4    1
     4     4     5    1
     5     5    13    1
     6    13    14   ar
     7    14    15   ar
     8    15    16   ar
     9    16    17   ar
    10    17    18   ar
    11     5     6    1
    12     6     7    1
    13     7     8    1
    14     8     9    1
    15     9    19    1
    16    19    25    1
    17    25    26   ar
    18    26    27   ar
    19    27    28   ar
    20    28    29   ar
    21    29    30   ar
    22    19    20    1
    23    20    21    1
    24    21    22    1
    25    22    23    1
    26    23    24    1
    27     9    10    1
    28    10    11    1
    29     6     2    1
    30    24    19    1
    31    18    13   ar
    32    11     6    1
    33    30    25   ar
    34     3    12    1
@<TRIPOS>MOLECULE
*****
 30 34 0 0 0
SMALL
GASTEIGER

@<TRIPOS>ATOM
      1 O         138.5290  145.0192  165.6663 O.2     1  UNL1       -0.2751
      2 C         139.4634  144.7596  164.5220 C.2     1  UNL1        0.2220
      3 N         139.4630  145.4748  163.2035 N.am    1  UNL1       -0.3040
      4 C         140.5617  144.8963  162.3620 C.3     1  UNL1        0.0941
      5 C         141.2413  143.8235  163.1604 C.3     1  UNL1        0.0501
      6 C         140.5625  143.7390  164.4954 C.3     1  UNL1        0.0768
      7 C         141.6927  142.7680  164.3231 C.3     1  UNL1        0.0264
      8 C         142.0502  141.8280  165.4360 C.3     1  UNL1        0.0728
      9 N         141.2774  141.8590  166.7212 N.3     1  UNL1       -0.2696
     10 C         140.1471  142.8300  166.8935 C.3     1  UNL1        0.0728
     11 C         139.7897  143.7700  165.7806 C.3     1  UNL1        0.0264
     12 H         138.8493  146.1971  162.9372 H       1  UNL1        0.1494
     13 C         142.3967  142.9828  162.7040 C.ar    1  UNL1       -0.0204
     14 C         143.8027  143.4496  162.9388 C.ar    1  UNL1       -0.0042
     15 C         144.9581  142.6090  162.4824 C.ar    1  UNL1       -0.0003
     16 C         144.7075  141.3016  161.7911 C.ar    1  UNL1       -0.0000
     17 C         143.3014  140.8348  161.5563 C.ar    1  UNL1       -0.0003
     18 C         142.1461  141.6754  162.0128 C.ar    1  UNL1       -0.0042
     19 C         141.6349  140.9190  167.8342 C.3     1  UNL1        0.0919
     20 C         142.4317  142.1222  168.2434 C.3     1  UNL1        0.0239
     21 C         143.2661  142.0809  169.4892 C.3     1  UNL1        0.0338
     22 C         143.3038  140.8364  170.3258 C.3     1  UNL1        0.1423
     23 O         142.5070  139.6332  169.9165 O.3     1  UNL1       -0.3520
     24 C         141.6726  139.6745  168.6707 C.3     1  UNL1        0.1608
     25 C         140.7140  140.0422  167.0384 C.ar    1  UNL1       -0.0069
     26 C         139.2598  139.9606  167.3975 C.ar    1  UNL1       -0.0029
     27 C         138.3390  139.0838  166.6016 C.ar    1  UNL1       -0.0003
     28 C         138.8722  138.2887  165.4468 C.ar    1  UNL1       -0.0000
     29 C         140.3262  138.3704  165.0878 C.ar    1  UNL1       -0.0003
     30 C         141.2472  139.2472  165.8836 C.ar    1  UNL1       -0.0029
@<TRIPOS>BOND
     1     1     2    2
     2     2     3   am
     3     3     4    1
     4     4     5    1
     5     5    13    1
     6    13    14   ar
     7    14    15   ar
     8    15    16   ar
     9    16    17   ar
    10    17    18   ar
    11     5     6    1
    12     6     7    1
    13     7     8    1
    14     8     9    1
    15     9    19    1
    16    19    25    1
    17    25    26   ar
    18    26    27   ar
    19    27    28   ar
    20    28    29   ar
    21    29    30   ar
    22    19    20    1
    23    20    21    1
    24    21    22    1
    25    22    23    1
    26    23    24    1
    27     9    10    1
    28    10    11    1
    29     6     2    1
    30    24    19    1
    31    18    13   ar
    32    11     6    1
    33    30    25   ar
    34     3    12    1
@<TRIPOS>MOLECULE
*****
 30 34 0 0 0
SMALL
GASTEIGER

@<TRIPOS>ATOM
      1 O         138.3422  138.7774  164.9855 O.2     1  UNL1       -0.2751
      2 C         138.7078  139.2727  166.3533 C.2     1  UNL1        0.2220
      3 N         138.0339  138.8921  167.6382 N.am    1  UNL1       -0.3040
      4 C         138.7212  139.6198  168.7554 C.3     1  UNL1        0.0941
      5 C         139.8200  140.4501  168.1609 C.3     1  UNL1        0.0501
      6 C         139.8117  140.2356  166.6763 C.3     1  UNL1        0.0768
      7 C         140.8729  141.1841  167.1498 C.3     1  UNL1        0.0264
      8 C         141.8048  141.8207  166.1618 C.3     1  UNL1        0.0728
      9 N         141.6756  141.5088  164.7003 N.3     1  UNL1       -0.2696
     10 C         140.6144  140.5603  164.2268 C.3     1  UNL1        0.0728
     11 C         139.6825  139.9237  165.2148 C.3     1  UNL1        0.0264
     12 H         137.2739  138.2733  167.7318 H       1  UNL1        0.1494
     13 C         140.7617  141.3389  168.9181 C.ar    1  UNL1       -0.0204
     14 C         142.0883  140.8092  169.3757 C.ar    1  UNL1       -0.0042
     15 C         143.0300  141.6980  170.1328 C.ar    1  UNL1       -0.0003
     16 C         142.6450  143.1165  170.4324 C.ar    1  UNL1       -0.0000
     17 C         141.3182  143.6462  169.9748 C.ar    1  UNL1       -0.0003
     18 C         140.3767  142.7574  169.2177 C.ar    1  UNL1       -0.0042
     19 C         142.6075  142.1454  163.7122 C.3     1  UNL1        0.0919
     20 C         143.5055  141.0803  164.2684 C.3     1  UNL1        0.0239
     21 C         144.9111  140.9449  163.7626 C.3     1  UNL1        0.0338
     22 C         145.4188  141.8746  162.7006 C.3     1  UNL1        0.1423
     23 O         144.5209  142.9398  162.1444 O.3     1  UNL1       -0.3520
     24 C         143.1153  143.0752  162.6502 C.3     1  UNL1        0.1608
     25 C         141.3860  142.9894  163.4992 C.ar    1  UNL1       -0.0069
     26 C         140.5629  142.8176  162.2570 C.ar    1  UNL1       -0.0029
     27 C         139.3413  143.6616  162.0441 C.ar    1  UNL1       -0.0003
     28 C         138.9428  144.6775  163.0732 C.ar    1  UNL1       -0.0000
     29 C         139.7658  144.8493  164.3154 C.ar    1  UNL1       -0.0003
     30 C         140.9874  144.0052  164.5284 C.ar    1  UNL1       -0.0029
@<TRIPOS>BOND
     1     1     2    2
     2     2     3   am
     3     3     4    1
     4     4     5    1
     5     5    13    1
     6    13    14   ar
     7    14    15   ar
     8    15    16   ar
     9    16    17   ar
    10    17    18   ar
    11     5     6    1
    12     6     7    1
    13     7     8    1
    14     8     9    1
    15     9    19    1
    16    19    25    1
    17    25    26   ar
    18    26    27   ar
    19    27    28   ar
    20    28    29   ar
    21    29    30   ar
    22    19    20    1
    23    20    21    1
    24    21    22    1
    25    22    23    1
    26    23    24    1
    27     9    10    1
    28    10    11    1
    29     6     2    1
    30    24    19    1
    31    18    13   ar
    32    11     6    1
    33    30    25   ar
    34     3    12    1
@<TRIPOS>MOLECULE
*****
 30 34 0 0 0
SMALL
GASTEIGER

@<TRIPOS>ATOM
      1 O         139.3485  140.7089  169.1161 O.2     1  UNL1       -0.2751
      2 C         138.8786  139.8834  167.9552 C.2     1  UNL1        0.2220
      3 N         137.9659  138.6953  168.0303 N.am    1  UNL1       -0.3040
      4 C         137.7622  138.1786  166.6368 C.3     1  UNL1        0.0941
      5 C         138.5490  139.0474  165.7006 C.3     1  UNL1        0.0501
      6 C         139.2389  140.1010  166.5154 C.3     1  UNL1        0.0768
      7 C         139.5092  140.1941  165.0430 C.3     1  UNL1        0.0264
      8 C         140.4026  141.2754  164.5114 C.3     1  UNL1        0.0728
      9 N         141.0257  142.2635  165.4523 N.3     1  UNL1       -0.2696
     10 C         140.7555  142.1704  166.9248 C.3     1  UNL1        0.0728
     11 C         139.8621  141.0891  167.4563 C.3     1  UNL1        0.0264
     12 H         137.5702  138.3205  168.8501 H       1  UNL1        0.1494
     13 C         138.6313  138.8901  164.2112 C.ar    1  UNL1       -0.0204
     14 C         139.5722  137.8862  163.6139 C.ar    1  UNL1       -0.0042
     15 C         139.6545  137.7289  162.1245 C.ar    1  UNL1       -0.0003
     16 C         138.7959  138.5755  161.2323 C.ar    1  UNL1       -0.0000
     17 C         137.8548  139.5795  161.8296 C.ar    1  UNL1       -0.0003
     18 C         137.7726  139.7367  163.3190 C.ar    1  UNL1       -0.0042
     19 C         141.9192  143.3448  164.9207 C.3     1  UNL1        0.0919
     20 C         142.9008  142.5876  165.7651 C.3     1  UNL1        0.0239
     21 C         144.3271  143.0442  165.8488 C.3     1  UNL1        0.0338
     22 C         144.7719  144.2580  165.0880 C.3     1  UNL1        0.1423
     23 O         143.7903  145.0152  164.2436 O.3     1  UNL1       -0.3520
     24 C         142.3640  144.5587  164.1599 C.3     1  UNL1        0.1608
     25 C         140.6273  143.7265  164.2609 C.ar    1  UNL1       -0.0069
     26 C         139.4600  144.1645  165.0948 C.ar    1  UNL1       -0.0029
     27 C         138.1681  144.5462  164.4350 C.ar    1  UNL1       -0.0003
     28 C         138.0436  144.4899  162.9412 C.ar    1  UNL1       -0.0000
     29 C         139.2109  144.0520  162.1073 C.ar    1  UNL1       -0.0003
     30 C         140.5028  143.6703  162.7671 C.ar    1  UNL1       -0.0029
@<TRIPOS>BOND
     1     1     2    2
     2     2     3   am
     3     3     4    1
     4     4     5    1
     5     5    13    1
     6    13    14   ar
     7    14    15   ar
     8    15    16   ar
     9    16    17   ar
    10    17    18   ar
    11     5     6    1
    12     6     7    1
    13     7     8    1
    14     8     9    1
    15     9    19    1
    16    19    25    1
    17    25    26   ar
    18    26    27   ar
    19    27    28   ar
    20    28    29   ar
    21    29    30   ar
    22    19    20    1
    23    20    21    1
    24    21    22    1
    25    22    23    1
    26    23    24    1
    27     9    10    1
    28    10    11    1
    29     6     2    1
    30    24    19    1
    31    18    13   ar
    32    11     6    1
    33    30    25   ar
    34     3    12    1
@<TRIPOS>MOLECULE
*****
 30 34 0 0 0
SMALL
GASTEIGER

@<TRIPOS>ATOM
      1 O         138.7187  136.9767  163.5545 O.2     1  UNL1       -0.2751
      2 C         138.4871  138.3324  162.9560 C.2     1  UNL1        0.2220
      3 N         137.7666  138.6179  161.6717 N.am    1  UNL1       -0.3040
      4 C         137.7696  140.1028  161.4587 C.3     1  UNL1        0.0941
      5 C         138.4921  140.7349  162.6113 C.3     1  UNL1        0.0501
      6 C         138.9355  139.6408  163.5367 C.3     1  UNL1        0.0768
      7 C         139.3175  141.0178  163.9927 C.3     1  UNL1        0.0264
      8 C         140.0761  141.2001  165.2738 C.3     1  UNL1        0.0728
      9 N         140.4528  140.0053  166.0989 N.3     1  UNL1       -0.2696
     10 C         140.0709  138.6283  165.6428 C.3     1  UNL1        0.0728
     11 C         139.3122  138.4461  164.3617 C.3     1  UNL1        0.0264
     12 H         137.3626  137.9483  161.0737 H       1  UNL1        0.1494
     13 C         138.7294  142.2034  162.8046 C.ar    1  UNL1       -0.0204
     14 C         137.7446  143.0264  163.5810 C.ar    1  UNL1       -0.0042
     15 C         137.9819  144.4949  163.7743 C.ar    1  UNL1       -0.0003
     16 C         139.2039  145.1403  163.1911 C.ar    1  UNL1       -0.0000
     17 C         140.1888  144.3171  162.4147 C.ar    1  UNL1       -0.0003
     18 C         139.9514  142.8488  162.2215 C.ar    1  UNL1       -0.0042
     19 C         141.2114  140.1876  167.3800 C.3     1  UNL1        0.0919
     20 C         139.8093  140.1458  167.9113 C.3     1  UNL1        0.0239
     21 C         139.5612  140.2788  169.3846 C.3     1  UNL1        0.0338
     22 C         140.7152  140.4536  170.3267 C.3     1  UNL1        0.1423
     23 O         142.1174  140.4954  169.7954 O.3     1  UNL1       -0.3520
     24 C         142.3655  140.3624  168.3221 C.3     1  UNL1        0.1608
     25 C         142.3501  140.1661  166.4039 C.ar    1  UNL1       -0.0069
     26 C         142.8218  141.4429  165.7735 C.ar    1  UNL1       -0.0029
     27 C         143.9605  141.4213  164.7973 C.ar    1  UNL1       -0.0003
     28 C         144.6275  140.1231  164.4515 C.ar    1  UNL1       -0.0000
     29 C         144.1558  138.8464  165.0818 C.ar    1  UNL1       -0.0003
     30 C         143.0171  138.8679  166.0580 C.ar    1  UNL1       -0.0029
@<TRIPOS>BOND
     1     1     2    2
     2     2     3   am
     3     3     4    1
     4     4     5    1
     5     5    13    1
     6    13    14   ar
     7    14    15   ar
     8    15    16   ar
     9    16    17   ar
    10    17    18   ar
    11     5     6    1
    12     6     7    1
    13     7     8    1
    14     8     9    1
    15     9    19    1
    16    19    25    1
    17    25    26   ar
    18    26    27   ar
    19    27    28   ar
    20    28    29   ar
    21    29    30   ar
    22    19    20    1
    23    20    21    1
    24    21    22    1
    25    22    23    1
    26    23    24    1
    27     9    10    1
    28    10    11    1
    29     6     2    1
    30    24    19    1
    31    18    13   ar
    32    11     6    1
    33    30    25   ar
    34     3    12    1
