@<TRIPOS>MOLECULE
*****
 23 25 0 0 0
SMALL
GASTEIGER

@<TRIPOS>ATOM
      1 C         138.8027  139.9707  166.3825 C.3     1  UNL1        0.0953
      2 C         138.5496  139.9150  164.9051 C.2     1  UNL1       -0.0229
      3 C         138.6872  138.6153  164.1691 C.2     1  UNL1       -0.0281
      4 C         139.0780  137.3713  164.9106 C.3     1  UNL1        0.0304
      5 C         138.4341  138.5595  162.6917 C.2     1  UNL1       -0.0079
      6 C         138.0432  139.8036  161.9502 C.2     1  UNL1       -0.0080
      7 C         137.7901  139.7477  160.4728 C.3     1  UNL1        0.0323
      8 C         137.9056  141.1033  162.6862 C.2     1  UNL1        0.0626
      9 N         137.5372  142.4828  162.2267 N.2     1  UNL1       -0.2482
     10 C         137.5627  143.3911  163.4201 C.2     1  UNL1        0.0946
     11 C         137.9468  142.5730  164.6172 C.2     1  UNL1        0.0042
     12 C         138.1588  141.1590  164.1637 C.3     1  UNL1        0.0826
     13 C         142.4986  141.9983  167.9571 C.3     1  UNL1        0.1182
     14 C         142.3146  141.8167  166.4797 C.3     1  UNL1        0.0469
     15 C         141.0826  141.1408  165.9547 C.3     1  UNL1        0.0749
     16 N         140.0347  140.6466  166.9074 N.3     1  UNL1       -0.2681
     17 C         140.2186  140.8283  168.3850 C.3     1  UNL1        0.0896
     18 C         141.4506  141.5041  168.9099 C.3     1  UNL1        0.0481
     19 C         139.1707  140.3341  169.3377 C.3     1  UNL1        0.1531
     20 O         138.7496  141.1867  170.4976 O.3     1  UNL1       -0.3806
     21 H         139.4934  141.2869  171.1121 H       1  UNL1        0.2105
     22 C         144.1175  142.5145  169.9225 C.3     1  UNL1        0.1740
     23 O         143.7306  142.6742  168.4821 O.3     1  UNL1       -0.3535
@<TRIPOS>BOND
     1    22    23    1
     2    13    23    1
     3    13    14    1
     4    14    15    1
     5    15    16    1
     6    16     1    1
     7     1     2    1
     8     2     3    2
     9     3     4    1
    10     3     5    1
    11     5     6    2
    12     6     7    1
    13     6     8    1
    14     8     9    2
    15     9    10    1
    16    10    11    2
    17    11    12    1
    18    16    17    1
    19    17    19    1
    20    19    20    1
    21    17    18    1
    22    18    13    1
    23    12     2    1
    24    12     8    1
    25    20    21    1
@<TRIPOS>MOLECULE
*****
 23 25 0 0 0
SMALL
GASTEIGER

@<TRIPOS>ATOM
      1 C         143.1165  140.9895  165.9759 C.3     1  UNL1        0.0953
      2 C         142.0330  140.8397  167.0023 C.2     1  UNL1       -0.0229
      3 C         140.8352  139.9857  166.7094 C.2     1  UNL1       -0.0281
      4 C         140.7210  139.2814  165.3898 C.3     1  UNL1        0.0304
      5 C         139.7518  139.8358  167.7357 C.2     1  UNL1       -0.0079
      6 C         139.8660  140.5401  169.0553 C.2     1  UNL1       -0.0080
      7 C         138.7824  140.3903  170.0817 C.3     1  UNL1        0.0323
      8 C         141.0638  141.3942  169.3482 C.2     1  UNL1        0.0626
      9 N         141.4494  142.2035  170.5508 N.2     1  UNL1       -0.2482
     10 C         142.7712  142.8535  170.2676 C.2     1  UNL1        0.0946
     11 C         143.2026  142.4459  168.8900 C.2     1  UNL1        0.0042
     12 C         142.1473  141.5440  168.3218 C.3     1  UNL1        0.0826
     13 C         142.5860  143.8535  162.5458 C.3     1  UNL1        0.1182
     14 C         141.4968  143.6936  163.5645 C.3     1  UNL1        0.0469
     15 C         141.6736  142.7389  164.7080 C.3     1  UNL1        0.0749
     16 N         142.9397  141.9442  164.8325 N.3     1  UNL1       -0.2681
     17 C         144.0289  142.1041  163.8137 C.3     1  UNL1        0.0896
     18 C         143.8521  143.0587  162.6703 C.3     1  UNL1        0.0481
     19 C         145.2950  141.3094  163.9382 C.3     1  UNL1        0.1531
     20 O         146.5299  141.7467  163.2078 O.3     1  UNL1       -0.3806
     21 H         146.3841  141.6708  162.2518 H       1  UNL1        0.2105
     22 C         141.0529  145.0054  160.7929 C.3     1  UNL1        0.1740
     23 O         142.4092  144.8082  161.4023 O.3     1  UNL1       -0.3535
@<TRIPOS>BOND
     1    22    23    1
     2    13    23    1
     3    13    14    1
     4    14    15    1
     5    15    16    1
     6    16     1    1
     7     1     2    1
     8     2     3    2
     9     3     4    1
    10     3     5    1
    11     5     6    2
    12     6     7    1
    13     6     8    1
    14     8     9    2
    15     9    10    1
    16    10    11    2
    17    11    12    1
    18    16    17    1
    19    17    19    1
    20    19    20    1
    21    17    18    1
    22    18    13    1
    23    12     2    1
    24    12     8    1
    25    20    21    1
@<TRIPOS>MOLECULE
*****
 23 25 0 0 0
SMALL
GASTEIGER

@<TRIPOS>ATOM
      1 C         138.9442  141.1497  165.7101 C.3     1  UNL1        0.0953
      2 C         140.1967  140.3519  165.9213 C.2     1  UNL1       -0.0229
      3 C         141.1080  140.6761  167.0678 C.2     1  UNL1       -0.0281
      4 C         140.7666  141.7981  168.0031 C.3     1  UNL1        0.0304
      5 C         142.3605  139.8784  167.2791 C.2     1  UNL1       -0.0079
      6 C         142.7019  138.7564  166.3438 C.2     1  UNL1       -0.0080
      7 C         143.9546  137.9587  166.5552 C.3     1  UNL1        0.0323
      8 C         141.7907  138.4322  165.1973 C.2     1  UNL1        0.0626
      9 N         141.8649  137.3916  164.1195 N.2     1  UNL1       -0.2482
     10 C         140.6581  137.5463  163.2422 C.2     1  UNL1        0.0946
     11 C         139.8381  138.6824  163.7777 C.2     1  UNL1        0.0042
     12 C         140.5381  139.2300  164.9861 C.3     1  UNL1        0.0826
     13 C         138.9563  144.6507  162.8830 C.3     1  UNL1        0.1182
     14 C         139.7657  144.7028  164.1447 C.3     1  UNL1        0.0469
     15 C         139.7617  143.5358  165.0871 C.3     1  UNL1        0.0749
     16 N         138.9482  142.3167  164.7677 N.3     1  UNL1       -0.2681
     17 C         138.1387  142.2646  163.5059 C.3     1  UNL1        0.0896
     18 C         138.1427  143.4316  162.5636 C.3     1  UNL1        0.0481
     19 C         137.3252  141.0455  163.1865 C.3     1  UNL1        0.1531
     20 O         137.0674  140.6691  161.7577 O.3     1  UNL1       -0.3806
     21 H         136.5144  141.3474  161.3393 H       1  UNL1        0.2105
     22 C         140.0383  145.9418  160.9050 C.3     1  UNL1        0.1740
     23 O         138.9603  145.8178  161.9406 O.3     1  UNL1       -0.3535
@<TRIPOS>BOND
     1    22    23    1
     2    13    23    1
     3    13    14    1
     4    14    15    1
     5    15    16    1
     6    16     1    1
     7     1     2    1
     8     2     3    2
     9     3     4    1
    10     3     5    1
    11     5     6    2
    12     6     7    1
    13     6     8    1
    14     8     9    2
    15     9    10    1
    16    10    11    2
    17    11    12    1
    18    16    17    1
    19    17    19    1
    20    19    20    1
    21    17    18    1
    22    18    13    1
    23    12     2    1
    24    12     8    1
    25    20    21    1
@<TRIPOS>MOLECULE
*****
 23 25 0 0 0
SMALL
GASTEIGER

@<TRIPOS>ATOM
      1 C         138.7670  140.5366  165.4451 C.3     1  UNL1        0.0953
      2 C         140.0917  139.8934  165.7302 C.2     1  UNL1       -0.0229
      3 C         140.6448  138.8658  164.7878 C.2     1  UNL1       -0.0281
      4 C         139.8730  138.4815  163.5603 C.3     1  UNL1        0.0304
      5 C         141.9695  138.2226  165.0729 C.2     1  UNL1       -0.0079
      6 C         142.7412  138.6070  166.3004 C.2     1  UNL1       -0.0080
      7 C         144.0660  137.9637  166.5854 C.3     1  UNL1        0.0323
      8 C         142.1882  139.6346  167.2428 C.2     1  UNL1        0.0626
      9 N         142.7176  140.2111  168.5224 N.2     1  UNL1       -0.2482
     10 C         141.7201  141.2106  169.0281 C.2     1  UNL1        0.0946
     11 C         140.5741  141.2519  168.0611 C.2     1  UNL1        0.0042
     12 C         140.8634  140.2778  166.9577 C.3     1  UNL1        0.0826
     13 C         138.5811  144.3336  163.0372 C.3     1  UNL1        0.1182
     14 C         139.2807  144.3204  164.3639 C.3     1  UNL1        0.0469
     15 C         139.3427  143.0547  165.1666 C.3     1  UNL1        0.0749
     16 N         138.7050  141.8023  164.6425 N.3     1  UNL1       -0.2681
     17 C         138.0053  141.8154  163.3157 C.3     1  UNL1        0.0896
     18 C         137.9434  143.0811  162.5130 C.3     1  UNL1        0.0481
     19 C         137.3677  140.5630  162.7915 C.3     1  UNL1        0.1531
     20 O         137.0555  140.4353  161.3300 O.3     1  UNL1       -0.3806
     21 H         136.3715  141.0792  161.0881 H       1  UNL1        0.2105
     22 C         139.7807  146.2141  161.7051 C.3     1  UNL1        0.1740
     23 O         138.5191  145.5993  162.2345 O.3     1  UNL1       -0.3535
@<TRIPOS>BOND
     1    22    23    1
     2    13    23    1
     3    13    14    1
     4    14    15    1
     5    15    16    1
     6    16     1    1
     7     1     2    1
     8     2     3    2
     9     3     4    1
    10     3     5    1
    11     5     6    2
    12     6     7    1
    13     6     8    1
    14     8     9    2
    15     9    10    1
    16    10    11    2
    17    11    12    1
    18    16    17    1
    19    17    19    1
    20    19    20    1
    21    17    18    1
    22    18    13    1
    23    12     2    1
    24    12     8    1
    25    20    21    1
@<TRIPOS>MOLECULE
*****
 23 25 0 0 0
SMALL
GASTEIGER

@<TRIPOS>ATOM
      1 C         143.1040  141.1695  166.0470 C.3     1  UNL1        0.0953
      2 C         141.9926  140.9668  167.0337 C.2     1  UNL1       -0.0229
      3 C         142.0782  141.5855  168.3975 C.2     1  UNL1       -0.0281
      4 C         143.2754  142.4069  168.7745 C.3     1  UNL1        0.0304
      5 C         140.9668  141.3827  169.3841 C.2     1  UNL1       -0.0079
      6 C         139.7697  140.5612  169.0071 C.2     1  UNL1       -0.0080
      7 C         138.6582  140.3585  169.9939 C.3     1  UNL1        0.0323
      8 C         139.6840  139.9425  167.6434 C.2     1  UNL1        0.0626
      9 N         138.6362  139.0891  166.9924 N.2     1  UNL1       -0.2482
     10 C         139.1001  138.7644  165.6034 C.2     1  UNL1        0.0946
     11 C         140.4346  139.4172  165.3959 C.2     1  UNL1        0.0042
     12 C         140.7955  140.1453  166.6566 C.3     1  UNL1        0.0826
     13 C         142.4848  143.8388  162.4775 C.3     1  UNL1        0.1182
     14 C         141.4333  143.7567  163.5440 C.3     1  UNL1        0.0469
     15 C         141.6397  142.8670  164.7339 C.3     1  UNL1        0.0749
     16 N         142.8976  142.0593  164.8572 N.3     1  UNL1       -0.2681
     17 C         143.9492  142.1414  163.7907 C.3     1  UNL1        0.0896
     18 C         143.7428  143.0311  162.6008 C.3     1  UNL1        0.0481
     19 C         145.2072  141.3337  163.9139 C.3     1  UNL1        0.1531
     20 O         146.4523  141.7714  163.2014 O.3     1  UNL1       -0.3806
     21 H         146.3144  141.7118  162.2431 H       1  UNL1        0.2105
     22 C         140.9012  145.2131  160.9433 C.3     1  UNL1        0.1740
     23 O         142.2784  144.7286  161.2876 O.3     1  UNL1       -0.3535
@<TRIPOS>BOND
     1    22    23    1
     2    13    23    1
     3    13    14    1
     4    14    15    1
     5    15    16    1
     6    16     1    1
     7     1     2    1
     8     2     3    2
     9     3     4    1
    10     3     5    1
    11     5     6    2
    12     6     7    1
    13     6     8    1
    14     8     9    2
    15     9    10    1
    16    10    11    2
    17    11    12    1
    18    16    17    1
    19    17    19    1
    20    19    20    1
    21    17    18    1
    22    18    13    1
    23    12     2    1
    24    12     8    1
    25    20    21    1
@<TRIPOS>MOLECULE
*****
 23 25 0 0 0
SMALL
GASTEIGER

@<TRIPOS>ATOM
      1 C         140.3236  143.2627  165.1230 C.3     1  UNL1        0.0953
      2 C         139.6661  141.9902  165.5687 C.2     1  UNL1       -0.0229
      3 C         138.6747  141.3055  164.6754 C.2     1  UNL1       -0.0281
      4 C         138.3407  141.8933  163.3363 C.3     1  UNL1        0.0304
      5 C         138.0172  140.0331  165.1210 C.2     1  UNL1       -0.0079
      6 C         138.3512  139.4454  166.4601 C.2     1  UNL1       -0.0080
      7 C         137.6936  138.1729  166.9057 C.3     1  UNL1        0.0323
      8 C         139.3426  140.1301  167.3535 C.2     1  UNL1        0.0626
      9 N         139.8672  139.7901  168.7170 N.2     1  UNL1       -0.2482
     10 C         140.8489  140.8525  169.1140 C.2     1  UNL1        0.0946
     11 C         140.9311  141.8490  167.9959 C.2     1  UNL1        0.0042
     12 C         140.0001  141.4025  166.9078 C.3     1  UNL1        0.0826
     13 C         143.6584  143.1347  162.1044 C.3     1  UNL1        0.1182
     14 C         143.6841  142.2159  163.2897 C.3     1  UNL1        0.0469
     15 C         142.5725  142.2586  164.2960 C.3     1  UNL1        0.0749
     16 N         141.4352  143.2200  164.1168 N.3     1  UNL1       -0.2681
     17 C         141.4094  144.1389  162.9314 C.3     1  UNL1        0.0896
     18 C         142.5210  144.0962  161.9252 C.3     1  UNL1        0.0481
     19 C         140.2721  145.1003  162.7522 C.3     1  UNL1        0.1531
     20 O         140.5504  146.5485  162.4783 O.3     1  UNL1       -0.3806
     21 H         140.9796  146.9471  163.2515 H       1  UNL1        0.2105
     22 C         144.5483  142.4461  159.7626 C.3     1  UNL1        0.1740
     23 O         144.7700  143.0920  161.0981 O.3     1  UNL1       -0.3535
@<TRIPOS>BOND
     1    22    23    1
     2    13    23    1
     3    13    14    1
     4    14    15    1
     5    15    16    1
     6    16     1    1
     7     1     2    1
     8     2     3    2
     9     3     4    1
    10     3     5    1
    11     5     6    2
    12     6     7    1
    13     6     8    1
    14     8     9    2
    15     9    10    1
    16    10    11    2
    17    11    12    1
    18    16    17    1
    19    17    19    1
    20    19    20    1
    21    17    18    1
    22    18    13    1
    23    12     2    1
    24    12     8    1
    25    20    21    1
@<TRIPOS>MOLECULE
*****
 23 25 0 0 0
SMALL
GASTEIGER

@<TRIPOS>ATOM
      1 C         142.6590  141.0344  164.8587 C.3     1  UNL1        0.0953
      2 C         141.4078  140.4104  165.4020 C.2     1  UNL1       -0.0229
      3 C         140.8437  140.8781  166.7108 C.2     1  UNL1       -0.0281
      4 C         141.5308  141.9699  167.4763 C.3     1  UNL1        0.0304
      5 C         139.5926  140.2541  167.2540 C.2     1  UNL1       -0.0079
      6 C         138.9055  139.1623  166.4885 C.2     1  UNL1       -0.0080
      7 C         137.6543  138.5384  167.0318 C.3     1  UNL1        0.0323
      8 C         139.4696  138.6946  165.1797 C.2     1  UNL1        0.0626
      9 N         139.0154  137.6455  164.2086 N.2     1  UNL1       -0.2482
     10 C         139.9859  137.6211  163.0651 C.2     1  UNL1        0.0946
     11 C         141.0399  138.6552  163.3295 C.2     1  UNL1        0.0042
     12 C         140.7208  139.3187  164.6364 C.3     1  UNL1        0.0826
     13 C         142.4327  143.8405  161.3481 C.3     1  UNL1        0.1182
     14 C         141.2888  143.7547  162.3145 C.3     1  UNL1        0.0469
     15 C         141.3642  142.8193  163.4848 C.3     1  UNL1        0.0749
     16 N         142.5836  141.9698  163.6885 N.3     1  UNL1       -0.2681
     17 C         143.7275  142.0556  162.7220 C.3     1  UNL1        0.0896
     18 C         143.6521  142.9909  161.5518 C.3     1  UNL1        0.0481
     19 C         144.9469  141.2061  162.9257 C.3     1  UNL1        0.1531
     20 O         146.2881  141.8514  163.1113 O.3     1  UNL1       -0.3806
     21 H         146.5430  142.3081  162.2944 H       1  UNL1        0.2105
     22 C         141.0223  145.1850  159.6295 C.3     1  UNL1        0.1740
     23 O         142.3573  144.7759  160.1778 O.3     1  UNL1       -0.3535
@<TRIPOS>BOND
     1    22    23    1
     2    13    23    1
     3    13    14    1
     4    14    15    1
     5    15    16    1
     6    16     1    1
     7     1     2    1
     8     2     3    2
     9     3     4    1
    10     3     5    1
    11     5     6    2
    12     6     7    1
    13     6     8    1
    14     8     9    2
    15     9    10    1
    16    10    11    2
    17    11    12    1
    18    16    17    1
    19    17    19    1
    20    19    20    1
    21    17    18    1
    22    18    13    1
    23    12     2    1
    24    12     8    1
    25    20    21    1
@<TRIPOS>MOLECULE
*****
 23 25 0 0 0
SMALL
GASTEIGER

@<TRIPOS>ATOM
      1 C         139.6027  141.1121  166.1767 C.3     1  UNL1        0.0953
      2 C         140.7273  141.4404  167.1135 C.2     1  UNL1       -0.0229
      3 C         141.9120  142.2169  166.6202 C.2     1  UNL1       -0.0281
      4 C         141.9721  142.6651  165.1899 C.3     1  UNL1        0.0304
      5 C         143.0365  142.5452  167.5569 C.2     1  UNL1       -0.0079
      6 C         142.9763  142.0970  168.9872 C.2     1  UNL1       -0.0080
      7 C         144.1009  142.4254  169.9240 C.3     1  UNL1        0.0323
      8 C         141.7916  141.3205  169.4806 C.2     1  UNL1        0.0626
      9 N         141.4555  140.7495  170.8263 N.2     1  UNL1       -0.2482
     10 C         140.1233  140.0683  170.7211 C.2     1  UNL1        0.0946
     11 C         139.6360  140.2182  169.3104 C.2     1  UNL1        0.0042
     12 C         140.6670  140.9922  168.5437 C.3     1  UNL1        0.0826
     13 C         140.3567  138.5170  162.5786 C.3     1  UNL1        0.1182
     14 C         141.1034  138.2649  163.8547 C.3     1  UNL1        0.0469
     15 C         140.8521  139.1299  165.0542 C.3     1  UNL1        0.0749
     16 N         139.8541  140.2471  164.9773 N.3     1  UNL1       -0.2681
     17 C         139.1073  140.4992  163.7010 C.3     1  UNL1        0.0896
     18 C         139.3586  139.6342  162.5016 C.3     1  UNL1        0.0481
     19 C         138.1093  141.6164  163.6241 C.3     1  UNL1        0.1531
     20 O         136.7061  141.3387  163.1729 O.3     1  UNL1       -0.3806
     21 H         136.7140  141.0638  162.2427 H       1  UNL1        0.2105
     22 C         141.5677  138.1019  160.3178 C.3     1  UNL1        0.1740
     23 O         140.6080  137.6519  161.3791 O.3     1  UNL1       -0.3535
@<TRIPOS>BOND
     1    22    23    1
     2    13    23    1
     3    13    14    1
     4    14    15    1
     5    15    16    1
     6    16     1    1
     7     1     2    1
     8     2     3    2
     9     3     4    1
    10     3     5    1
    11     5     6    2
    12     6     7    1
    13     6     8    1
    14     8     9    2
    15     9    10    1
    16    10    11    2
    17    11    12    1
    18    16    17    1
    19    17    19    1
    20    19    20    1
    21    17    18    1
    22    18    13    1
    23    12     2    1
    24    12     8    1
    25    20    21    1
@<TRIPOS>MOLECULE
*****
 23 25 0 0 0
SMALL
GASTEIGER

@<TRIPOS>ATOM
      1 C         140.8292  139.2485  166.2019 C.3     1  UNL1        0.0953
      2 C         141.1868  140.2913  167.2190 C.2     1  UNL1       -0.0229
      3 C         142.4172  141.1290  167.0337 C.2     1  UNL1       -0.0281
      4 C         143.2901  140.9237  165.8311 C.3     1  UNL1        0.0304
      5 C         142.7748  142.1718  168.0507 C.2     1  UNL1       -0.0079
      6 C         141.9020  142.3771  169.2533 C.2     1  UNL1       -0.0080
      7 C         142.2597  143.4200  170.2704 C.3     1  UNL1        0.0323
      8 C         140.6716  141.5394  169.4387 C.2     1  UNL1        0.0626
      9 N         139.6272  141.5145  170.5151 N.2     1  UNL1       -0.2482
     10 C         138.6241  140.4562  170.1631 C.2     1  UNL1        0.0946
     11 C         139.0486  139.8271  168.8693 C.2     1  UNL1        0.0042
     12 C         140.3140  140.4966  168.4215 C.3     1  UNL1        0.0826
     13 C         138.1573  140.3059  162.7388 C.3     1  UNL1        0.1182
     14 C         138.1489  141.1511  163.9779 C.3     1  UNL1        0.0469
     15 C         139.0396  140.7987  165.1324 C.3     1  UNL1        0.0749
     16 N         139.9386  139.6010  165.0475 N.3     1  UNL1       -0.2681
     17 C         139.9471  138.7557  163.8084 C.3     1  UNL1        0.0896
     18 C         139.0564  139.1081  162.6540 C.3     1  UNL1        0.0481
     19 C         140.8461  137.5580  163.7235 C.3     1  UNL1        0.1531
     20 O         141.2912  137.0476  162.3852 O.3     1  UNL1       -0.3806
     21 H         140.5243  136.7098  161.8966 H       1  UNL1        0.2105
     22 C         137.3429  139.8702  160.3105 C.3     1  UNL1        0.1740
     23 O         137.2667  140.6584  161.5844 O.3     1  UNL1       -0.3535
@<TRIPOS>BOND
     1    22    23    1
     2    13    23    1
     3    13    14    1
     4    14    15    1
     5    15    16    1
     6    16     1    1
     7     1     2    1
     8     2     3    2
     9     3     4    1
    10     3     5    1
    11     5     6    2
    12     6     7    1
    13     6     8    1
    14     8     9    2
    15     9    10    1
    16    10    11    2
    17    11    12    1
    18    16    17    1
    19    17    19    1
    20    19    20    1
    21    17    18    1
    22    18    13    1
    23    12     2    1
    24    12     8    1
    25    20    21    1
