@<TRIPOS>MOLECULE
*****
 37 39 0 0 0
SMALL
GASTEIGER

@<TRIPOS>ATOM
      1 C         138.1263  141.4266  162.0449 C.ar    1  UNL1        0.1417
      2 C         138.0355  140.5870  163.2846 C.ar    1  UNL1        0.0743
      3 C         138.6071  139.2002  163.2947 C.ar    1  UNL1        0.1485
      4 C         139.2695  138.6531  162.0651 C.ar    1  UNL1        0.0422
      5 C         139.3603  139.4927  160.8255 C.ar    1  UNL1        0.0597
      6 C         138.7887  140.8795  160.8154 C.ar    1  UNL1        0.0416
      7 C         140.0228  138.9456  159.5959 C.2     1  UNL1        0.2508
      8 O         139.1976  138.5888  158.3952 O.2     1  UNL1       -0.2698
      9 N         141.5104  138.7553  159.5671 N.am    1  UNL1       -0.2644
     10 H         142.0519  138.9894  160.3552 H       1  UNL1        0.1566
     11 C         142.1728  138.2081  158.3375 C.ar    1  UNL1        0.1557
     12 C         142.5952  139.0015  157.1365 C.ar    1  UNL1        0.0565
     13 C         143.2126  138.0553  156.1497 C.ar    1  UNL1        0.0986
     14 N         143.1718  136.6773  156.7409 N.ar    1  UNL1       -0.2406
     15 N         142.5292  136.7717  158.0930 N.ar    1  UNL1       -0.1536
     16 C         143.6837  135.4247  156.0937 C.3     1  UNL1        0.1866
     17 P         142.9389  134.1339  156.2642 P.3     1  UNL1        0.1385
     18 C         144.0121  133.6366  157.1867 C.3     1  UNL1        0.0697
     19 C         141.8657  134.6312  155.3417 C.3     1  UNL1        0.0697
     20 O         142.1941  132.8431  156.4347 O.2     1  UNL1       -0.3171
     21 O         137.5546  142.8134  162.0348 O.3     1  UNL1       -0.4765
     22 C         138.1111  143.8607  162.9532 C.3     1  UNL1        0.1954
     23 C         137.7407  143.8571  164.4067 C.3     1  UNL1        0.0500
     24 C         139.0381  144.9117  162.4181 C.3     1  UNL1        0.1855
     25 C         140.5016  144.1413  160.4144 C.3     1  UNL1        0.1743
     26 O         139.3606  144.9520  160.9537 O.3     1  UNL1       -0.3473
     27 O         138.5163  138.3606  164.5344 O.3     1  UNL1       -0.4534
     28 C         138.9628  138.9192  165.8529 C.ar    1  UNL1        0.1454
     29 C         138.0227  138.9257  167.0218 C.ar    1  UNL1        0.0388
     30 C         138.4693  139.4843  168.3403 C.ar    1  UNL1        0.0215
     31 C         139.8560  140.0364  168.4900 C.ar    1  UNL1        0.1059
     32 C         140.7960  140.0299  167.3211 C.ar    1  UNL1        0.0215
     33 C         140.3494  139.4713  166.0026 C.ar    1  UNL1        0.0388
     34 S         140.3026  140.5950  169.8085 S.O2    1  UNL1        0.0105
     35 C         140.7492  141.1536  171.1270 C.3     1  UNL1        0.1816
     36 O         141.4302  141.3091  169.1240 O.2     1  UNL1       -0.1686
     37 O         139.1749  139.8809  170.4930 O.2     1  UNL1       -0.1686
@<TRIPOS>BOND
     1    25    26    1
     2    26    24    1
     3    24    22    1
     4    22    23    1
     5    22    21    1
     6    21     1    1
     7     1     2   ar
     8     2     3   ar
     9     3    27    1
    10    27    28    1
    11    28    29   ar
    12    29    30   ar
    13    30    31   ar
    14    31    34    1
    15    34    35    1
    16    34    36    2
    17    34    37    2
    18    31    32   ar
    19    32    33   ar
    20     3     4   ar
    21     4     5   ar
    22     5     7    1
    23     7     8    2
    24     7     9   am
    25     9    11    1
    26    11    12   ar
    27    12    13   ar
    28    13    14   ar
    29    14    16    1
    30    16    17    1
    31    17    18    1
    32    17    19    1
    33    17    20    2
    34    14    15   ar
    35     5     6   ar
    36     6     1   ar
    37    33    28   ar
    38    15    11   ar
    39     9    10    1
@<TRIPOS>MOLECULE
*****
 37 39 0 0 0
SMALL
GASTEIGER

@<TRIPOS>ATOM
      1 C         138.2809  141.7848  161.9032 C.ar    1  UNL1        0.1417
      2 C         138.1412  140.9753  163.1583 C.ar    1  UNL1        0.0743
      3 C         138.6466  139.5637  163.2004 C.ar    1  UNL1        0.1485
      4 C         139.2917  138.9615  161.9875 C.ar    1  UNL1        0.0422
      5 C         139.4314  139.7709  160.7324 C.ar    1  UNL1        0.0597
      6 C         138.9260  141.1826  160.6903 C.ar    1  UNL1        0.0416
      7 C         140.0764  139.1688  159.5194 C.2     1  UNL1        0.2508
      8 O         139.2277  138.6793  158.3836 O.2     1  UNL1       -0.2698
      9 N         141.5702  139.0561  159.4422 N.am    1  UNL1       -0.2644
     10 H         142.1272  139.3774  160.1877 H       1  UNL1        0.1566
     11 C         142.2153  138.4539  158.2292 C.ar    1  UNL1        0.1557
     12 C         142.6251  139.1931  156.9900 C.ar    1  UNL1        0.0565
     13 C         143.2269  138.2029  156.0373 C.ar    1  UNL1        0.0986
     14 N         143.1890  136.8518  156.6879 N.ar    1  UNL1       -0.2406
     15 N         142.5637  137.0070  158.0425 N.ar    1  UNL1       -0.1536
     16 C         143.6885  135.5706  156.0890 C.3     1  UNL1        0.1866
     17 P         142.9206  134.2981  156.2920 P.3     1  UNL1        0.1385
     18 C         141.8761  134.7746  155.3265 C.3     1  UNL1        0.0697
     19 C         143.9650  133.8218  157.2575 C.3     1  UNL1        0.0697
     20 O         142.1526  133.0257  156.4950 O.2     1  UNL1       -0.3171
     21 O         137.7755  143.1965  161.8611 O.3     1  UNL1       -0.4765
     22 C         138.3093  144.2133  162.8261 C.3     1  UNL1        0.1954
     23 C         137.8567  144.2000  164.2561 C.3     1  UNL1        0.0500
     24 C         139.2956  145.2434  162.3610 C.3     1  UNL1        0.1855
     25 C         141.3817  143.7248  162.6643 C.3     1  UNL1        0.1743
     26 O         140.7521  145.0862  162.6829 O.3     1  UNL1       -0.3473
     27 O         138.5069  138.7542  164.4555 O.3     1  UNL1       -0.4534
     28 C         139.2896  139.1272  165.6795 C.ar    1  UNL1        0.1454
     29 C         140.7875  139.1844  165.6233 C.ar    1  UNL1        0.0388
     30 C         141.5703  139.5574  166.8474 C.ar    1  UNL1        0.0215
     31 C         140.8551  139.8732  168.1276 C.ar    1  UNL1        0.1059
     32 C         139.3572  139.8160  168.1837 C.ar    1  UNL1        0.0215
     33 C         138.5745  139.4430  166.9597 C.ar    1  UNL1        0.0388
     34 S         141.6378  140.2462  169.3516 S.O2    1  UNL1        0.0105
     35 C         142.4205  140.6193  170.5756 C.3     1  UNL1        0.1816
     36 O         140.6775  139.4691  170.2025 O.2     1  UNL1       -0.1686
     37 O         142.5980  141.0234  168.5007 O.2     1  UNL1       -0.1686
@<TRIPOS>BOND
     1    25    26    1
     2    26    24    1
     3    24    22    1
     4    22    23    1
     5    22    21    1
     6    21     1    1
     7     1     2   ar
     8     2     3   ar
     9     3    27    1
    10    27    28    1
    11    28    29   ar
    12    29    30   ar
    13    30    31   ar
    14    31    34    1
    15    34    35    1
    16    34    36    2
    17    34    37    2
    18    31    32   ar
    19    32    33   ar
    20     3     4   ar
    21     4     5   ar
    22     5     7    1
    23     7     8    2
    24     7     9   am
    25     9    11    1
    26    11    12   ar
    27    12    13   ar
    28    13    14   ar
    29    14    16    1
    30    16    17    1
    31    17    18    1
    32    17    19    1
    33    17    20    2
    34    14    15   ar
    35     5     6   ar
    36     6     1   ar
    37    33    28   ar
    38    15    11   ar
    39     9    10    1
@<TRIPOS>MOLECULE
*****
 37 39 0 0 0
SMALL
GASTEIGER

@<TRIPOS>ATOM
      1 C         137.8555  142.3010  162.6085 C.ar    1  UNL1        0.1417
      2 C         137.9768  141.2975  163.7167 C.ar    1  UNL1        0.0743
      3 C         138.3061  139.8684  163.4017 C.ar    1  UNL1        0.1485
      4 C         138.5142  139.4428  161.9785 C.ar    1  UNL1        0.0422
      5 C         138.3930  140.4464  160.8703 C.ar    1  UNL1        0.0597
      6 C         138.0637  141.8755  161.1853 C.ar    1  UNL1        0.0416
      7 C         138.6011  140.0208  159.4470 C.2     1  UNL1        0.2508
      8 O         137.5122  140.2260  158.4360 O.2     1  UNL1       -0.2698
      9 N         139.8982  139.3902  159.0348 N.am    1  UNL1       -0.2644
     10 H         140.6129  139.2556  159.6983 H       1  UNL1        0.1566
     11 C         140.1063  138.9647  157.6115 C.ar    1  UNL1        0.1557
     12 C         140.9798  139.6524  156.6045 C.ar    1  UNL1        0.0565
     13 C         140.8908  138.8895  155.3159 C.ar    1  UNL1        0.0986
     14 N         139.9623  137.7303  155.5267 N.ar    1  UNL1       -0.2406
     15 N         139.4775  137.7768  156.9454 N.ar    1  UNL1       -0.1536
     16 C         139.5850  136.7048  154.4993 C.3     1  UNL1        0.1866
     17 P         140.6465  136.0598  153.6582 P.3     1  UNL1        0.1385
     18 C         141.1293  135.2946  154.8547 C.3     1  UNL1        0.0697
     19 C         140.1637  136.8250  152.4619 C.3     1  UNL1        0.0697
     20 O         141.7079  135.4147  152.8173 O.2     1  UNL1       -0.3171
     21 O         137.5262  143.7301  162.9235 O.3     1  UNL1       -0.4765
     22 C         138.5116  144.5799  163.6696 C.3     1  UNL1        0.1954
     23 C         138.4098  144.7130  165.1603 C.3     1  UNL1        0.0500
     24 C         139.5987  145.2968  162.9252 C.3     1  UNL1        0.1855
     25 C         140.2228  145.4442  160.4074 C.3     1  UNL1        0.1743
     26 O         139.3358  145.8381  161.5512 O.3     1  UNL1       -0.3473
     27 O         138.4273  138.8648  164.5100 O.3     1  UNL1       -0.4534
     28 C         139.2199  139.1972  165.7394 C.ar    1  UNL1        0.1454
     29 C         138.5167  139.4426  167.0415 C.ar    1  UNL1        0.0388
     30 C         139.3093  139.7750  168.2708 C.ar    1  UNL1        0.0215
     31 C         140.8051  139.8620  168.1981 C.ar    1  UNL1        0.1059
     32 C         141.5082  139.6166  166.8961 C.ar    1  UNL1        0.0215
     33 C         140.7156  139.2842  165.6667 C.ar    1  UNL1        0.0388
     34 S         141.5977  140.1944  169.4275 S.O2    1  UNL1        0.0105
     35 C         142.3902  140.5268  170.6568 C.3     1  UNL1        0.1816
     36 O         140.5588  139.5256  170.2781 O.2     1  UNL1       -0.1686
     37 O         142.6365  140.8632  168.5769 O.2     1  UNL1       -0.1686
@<TRIPOS>BOND
     1    25    26    1
     2    26    24    1
     3    24    22    1
     4    22    23    1
     5    22    21    1
     6    21     1    1
     7     1     2   ar
     8     2     3   ar
     9     3    27    1
    10    27    28    1
    11    28    29   ar
    12    29    30   ar
    13    30    31   ar
    14    31    34    1
    15    34    35    1
    16    34    36    2
    17    34    37    2
    18    31    32   ar
    19    32    33   ar
    20     3     4   ar
    21     4     5   ar
    22     5     7    1
    23     7     8    2
    24     7     9   am
    25     9    11    1
    26    11    12   ar
    27    12    13   ar
    28    13    14   ar
    29    14    16    1
    30    16    17    1
    31    17    18    1
    32    17    19    1
    33    17    20    2
    34    14    15   ar
    35     5     6   ar
    36     6     1   ar
    37    33    28   ar
    38    15    11   ar
    39     9    10    1
@<TRIPOS>MOLECULE
*****
 37 39 0 0 0
SMALL
GASTEIGER

@<TRIPOS>ATOM
      1 C         141.1972  142.2169  161.9595 C.ar    1  UNL1        0.1417
      2 C         140.5171  141.4812  163.0758 C.ar    1  UNL1        0.0743
      3 C         140.5393  139.9817  163.1089 C.ar    1  UNL1        0.1485
      4 C         141.2417  139.2179  162.0258 C.ar    1  UNL1        0.0422
      5 C         141.9218  139.9536  160.9095 C.ar    1  UNL1        0.0597
      6 C         141.8996  141.4531  160.8764 C.ar    1  UNL1        0.0416
      7 C         142.6242  139.1898  159.8263 C.2     1  UNL1        0.2508
      8 O         144.1188  139.0642  159.8455 O.2     1  UNL1       -0.2698
      9 N         141.8321  138.5518  158.7239 N.am    1  UNL1       -0.2644
     10 H         140.8511  138.6343  158.7113 H       1  UNL1        0.1566
     11 C         142.5345  137.7880  157.6407 C.ar    1  UNL1        0.1557
     12 C         143.2071  138.3807  156.4381 C.ar    1  UNL1        0.0565
     13 C         143.7759  137.2565  155.6240 C.ar    1  UNL1        0.0986
     14 N         143.4548  135.9690  156.3236 N.ar    1  UNL1       -0.2406
     15 N         142.6876  136.2975  157.5699 N.ar    1  UNL1       -0.1536
     16 C         143.8343  134.5945  155.8585 C.3     1  UNL1        0.1866
     17 P         143.1820  133.3894  156.4686 P.3     1  UNL1        0.1385
     18 C         144.3360  133.2445  157.4159 C.3     1  UNL1        0.0697
     19 C         142.0280  133.5343  155.5213 C.3     1  UNL1        0.0697
     20 O         142.5297  132.1843  157.0788 O.2     1  UNL1       -0.3171
     21 O         141.1750  143.7164  161.9264 O.3     1  UNL1       -0.4765
     22 C         141.4340  144.4982  163.1801 C.3     1  UNL1        0.1954
     23 C         142.8399  144.8480  163.5688 C.3     1  UNL1        0.0500
     24 C         140.2872  144.9301  164.0451 C.3     1  UNL1        0.1855
     25 C         137.8652  143.9899  164.0346 C.3     1  UNL1        0.1743
     26 O         138.8927  144.9388  163.4925 O.3     1  UNL1       -0.3473
     27 O         139.8591  139.2461  164.2253 O.3     1  UNL1       -0.4534
     28 C         140.2455  139.5195  165.6487 C.ar    1  UNL1        0.1454
     29 C         141.6913  139.5118  166.0481 C.ar    1  UNL1        0.0388
     30 C         142.0777  139.7853  167.4714 C.ar    1  UNL1        0.0215
     31 C         141.0182  140.0664  168.4954 C.ar    1  UNL1        0.1059
     32 C         139.5724  140.0741  168.0960 C.ar    1  UNL1        0.0215
     33 C         139.1860  139.8007  166.6726 C.ar    1  UNL1        0.0388
     34 S         141.4045  140.3399  169.9187 S.O2    1  UNL1        0.0105
     35 C         141.7909  140.6134  171.3421 C.3     1  UNL1        0.1816
     36 O         142.6969  140.9417  169.4523 O.2     1  UNL1       -0.1686
     37 O         140.1121  139.7381  170.3852 O.2     1  UNL1       -0.1686
@<TRIPOS>BOND
     1    25    26    1
     2    26    24    1
     3    24    22    1
     4    22    23    1
     5    22    21    1
     6    21     1    1
     7     1     2   ar
     8     2     3   ar
     9     3    27    1
    10    27    28    1
    11    28    29   ar
    12    29    30   ar
    13    30    31   ar
    14    31    34    1
    15    34    35    1
    16    34    36    2
    17    34    37    2
    18    31    32   ar
    19    32    33   ar
    20     3     4   ar
    21     4     5   ar
    22     5     7    1
    23     7     8    2
    24     7     9   am
    25     9    11    1
    26    11    12   ar
    27    12    13   ar
    28    13    14   ar
    29    14    16    1
    30    16    17    1
    31    17    18    1
    32    17    19    1
    33    17    20    2
    34    14    15   ar
    35     5     6   ar
    36     6     1   ar
    37    33    28   ar
    38    15    11   ar
    39     9    10    1
@<TRIPOS>MOLECULE
*****
 37 39 0 0 0
SMALL
GASTEIGER

@<TRIPOS>ATOM
      1 C         144.2388  141.9814  162.0736 C.ar    1  UNL1        0.1417
      2 C         144.1876  141.1695  163.3338 C.ar    1  UNL1        0.0743
      3 C         143.9183  139.6954  163.2658 C.ar    1  UNL1        0.1485
      4 C         143.7003  139.0333  161.9376 C.ar    1  UNL1        0.0422
      5 C         143.7515  139.8452  160.6775 C.ar    1  UNL1        0.0597
      6 C         144.0208  141.3193  160.7454 C.ar    1  UNL1        0.0416
      7 C         143.5335  139.1831  159.3492 C.2     1  UNL1        0.2508
      8 O         144.2351  139.7012  158.1288 O.2     1  UNL1       -0.2698
      9 N         142.6140  138.0029  159.2415 N.am    1  UNL1       -0.2644
     10 H         142.1536  137.6629  160.0425 H       1  UNL1        0.1566
     11 C         142.3960  137.3408  157.9132 C.ar    1  UNL1        0.1557
     12 C         141.4808  137.8235  156.8272 C.ar    1  UNL1        0.0565
     13 C         141.5741  136.8608  155.6806 C.ar    1  UNL1        0.0986
     14 N         142.5469  135.7832  156.0581 N.ar    1  UNL1       -0.2406
     15 N         143.0548  136.0799  157.4379 N.ar    1  UNL1       -0.1536
     16 C         142.9423  134.6142  155.2055 C.3     1  UNL1        0.1866
     17 P         142.6692  133.2163  155.6759 P.3     1  UNL1        0.1385
     18 C         141.2491  133.3364  155.2078 C.3     1  UNL1        0.0697
     19 C         144.0892  133.0963  156.1439 C.3     1  UNL1        0.0697
     20 O         142.3960  131.8184  156.1462 O.2     1  UNL1       -0.3171
     21 O         144.5081  143.4555  162.1416 O.3     1  UNL1       -0.4765
     22 C         143.4495  144.3886  162.6501 C.3     1  UNL1        0.1954
     23 C         143.6570  145.1272  163.9391 C.3     1  UNL1        0.0500
     24 C         142.1834  144.5832  161.8696 C.3     1  UNL1        0.1855
     25 C         140.8068  142.8427  163.2208 C.3     1  UNL1        0.1743
     26 O         140.8743  144.1194  162.4362 O.3     1  UNL1       -0.3473
     27 O         143.8670  138.8835  164.5261 O.3     1  UNL1       -0.4534
     28 C         142.9040  139.2505  165.6160 C.ar    1  UNL1        0.1454
     29 C         141.5545  139.8058  165.2689 C.ar    1  UNL1        0.0388
     30 C         140.5915  140.1728  166.3588 C.ar    1  UNL1        0.0215
     31 C         140.9781  139.9845  167.7959 C.ar    1  UNL1        0.1059
     32 C         142.3276  139.4292  168.1430 C.ar    1  UNL1        0.0215
     33 C         143.2905  139.0622  167.0530 C.ar    1  UNL1        0.0388
     34 S         140.0151  140.3515  168.8859 S.O2    1  UNL1        0.0105
     35 C         139.0522  140.7185  169.9758 C.3     1  UNL1        0.1816
     36 O         138.9783  139.4593  168.2702 O.2     1  UNL1       -0.1686
     37 O         141.0520  141.2437  169.5015 O.2     1  UNL1       -0.1686
@<TRIPOS>BOND
     1    25    26    1
     2    26    24    1
     3    24    22    1
     4    22    23    1
     5    22    21    1
     6    21     1    1
     7     1     2   ar
     8     2     3   ar
     9     3    27    1
    10    27    28    1
    11    28    29   ar
    12    29    30   ar
    13    30    31   ar
    14    31    34    1
    15    34    35    1
    16    34    36    2
    17    34    37    2
    18    31    32   ar
    19    32    33   ar
    20     3     4   ar
    21     4     5   ar
    22     5     7    1
    23     7     8    2
    24     7     9   am
    25     9    11    1
    26    11    12   ar
    27    12    13   ar
    28    13    14   ar
    29    14    16    1
    30    16    17    1
    31    17    18    1
    32    17    19    1
    33    17    20    2
    34    14    15   ar
    35     5     6   ar
    36     6     1   ar
    37    33    28   ar
    38    15    11   ar
    39     9    10    1
@<TRIPOS>MOLECULE
*****
 37 39 0 0 0
SMALL
GASTEIGER

@<TRIPOS>ATOM
      1 C         142.8830  143.3617  160.5893 C.ar    1  UNL1        0.1417
      2 C         143.5995  143.1135  161.8835 C.ar    1  UNL1        0.0743
      3 C         144.2279  141.7775  162.1486 C.ar    1  UNL1        0.1485
      4 C         144.1398  140.6897  161.1196 C.ar    1  UNL1        0.0422
      5 C         143.4233  140.9380  159.8254 C.ar    1  UNL1        0.0597
      6 C         142.7949  142.2740  159.5603 C.ar    1  UNL1        0.0416
      7 C         143.3352  139.8502  158.7962 C.2     1  UNL1        0.2508
      8 O         144.3176  139.8081  157.6635 O.2     1  UNL1       -0.2698
      9 N         142.2647  138.8046  158.8999 N.am    1  UNL1       -0.2644
     10 H         141.6199  138.8323  159.6433 H       1  UNL1        0.1566
     11 C         142.1765  137.7169  157.8707 C.ar    1  UNL1        0.1557
     12 C         141.1010  137.5674  156.8358 C.ar    1  UNL1        0.0565
     13 C         141.4082  136.3458  156.0213 C.ar    1  UNL1        0.0986
     14 N         142.6735  135.7403  156.5529 N.ar    1  UNL1       -0.2406
     15 N         143.1483  136.5877  157.6958 N.ar    1  UNL1       -0.1536
     16 C         143.3458  134.5045  156.0327 C.3     1  UNL1        0.1866
     17 P         143.0513  133.1719  156.6551 P.3     1  UNL1        0.1385
     18 C         141.9057  132.9818  155.7056 C.3     1  UNL1        0.0697
     19 C         144.1969  133.3620  157.6046 C.3     1  UNL1        0.0697
     20 O         142.7567  131.8393  157.2775 O.2     1  UNL1       -0.3171
     21 O         142.2546  144.6977  160.3242 O.3     1  UNL1       -0.4765
     22 C         140.8413  144.7765  159.8280 C.3     1  UNL1        0.1954
     23 C         140.5321  145.5134  158.5586 C.3     1  UNL1        0.0500
     24 C         139.7371  144.1185  160.6012 C.3     1  UNL1        0.1855
     25 C         139.8517  144.9752  163.0513 C.3     1  UNL1        0.1743
     26 O         139.1039  144.8317  161.7589 O.3     1  UNL1       -0.3473
     27 O         144.9445  141.5293  163.4429 O.3     1  UNL1       -0.4534
     28 C         144.1661  141.1741  164.6749 C.ar    1  UNL1        0.1454
     29 C         143.8314  139.7406  164.9634 C.ar    1  UNL1        0.0388
     30 C         143.0530  139.3855  166.1954 C.ar    1  UNL1        0.0215
     31 C         142.6092  140.4638  167.1390 C.ar    1  UNL1        0.1059
     32 C         142.9439  141.8972  166.8506 C.ar    1  UNL1        0.0215
     33 C         143.7223  142.2524  165.6185 C.ar    1  UNL1        0.0388
     34 S         141.8308  140.1087  168.3711 S.O2    1  UNL1        0.0105
     35 C         141.0524  139.7535  169.6031 C.3     1  UNL1        0.1816
     36 O         143.0767  140.2399  169.1961 O.2     1  UNL1       -0.1686
     37 O         140.5850  139.9774  167.5461 O.2     1  UNL1       -0.1686
@<TRIPOS>BOND
     1    25    26    1
     2    26    24    1
     3    24    22    1
     4    22    23    1
     5    22    21    1
     6    21     1    1
     7     1     2   ar
     8     2     3   ar
     9     3    27    1
    10    27    28    1
    11    28    29   ar
    12    29    30   ar
    13    30    31   ar
    14    31    34    1
    15    34    35    1
    16    34    36    2
    17    34    37    2
    18    31    32   ar
    19    32    33   ar
    20     3     4   ar
    21     4     5   ar
    22     5     7    1
    23     7     8    2
    24     7     9   am
    25     9    11    1
    26    11    12   ar
    27    12    13   ar
    28    13    14   ar
    29    14    16    1
    30    16    17    1
    31    17    18    1
    32    17    19    1
    33    17    20    2
    34    14    15   ar
    35     5     6   ar
    36     6     1   ar
    37    33    28   ar
    38    15    11   ar
    39     9    10    1
@<TRIPOS>MOLECULE
*****
 37 39 0 0 0
SMALL
GASTEIGER

@<TRIPOS>ATOM
      1 C         140.8517  142.4401  161.0325 C.ar    1  UNL1        0.1417
      2 C         141.7280  142.6088  162.2381 C.ar    1  UNL1        0.0743
      3 C         143.0221  141.8566  162.3359 C.ar    1  UNL1        0.1485
      4 C         143.4398  140.9356  161.2281 C.ar    1  UNL1        0.0422
      5 C         142.5635  140.7669  160.0225 C.ar    1  UNL1        0.0597
      6 C         141.2694  141.5191  159.9247 C.ar    1  UNL1        0.0416
      7 C         142.9812  139.8459  158.9146 C.2     1  UNL1        0.2508
      8 O         144.3437  139.9797  158.3016 O.2     1  UNL1       -0.2698
      9 N         142.0365  138.7911  158.4198 N.am    1  UNL1       -0.2644
     10 H         141.1422  138.7033  158.8221 H       1  UNL1        0.1566
     11 C         142.4542  137.8701  157.3119 C.ar    1  UNL1        0.1557
     12 C         142.4861  138.2066  155.8505 C.ar    1  UNL1        0.0565
     13 C         142.9649  136.9954  155.1063 C.ar    1  UNL1        0.0986
     14 N         143.2289  135.9103  156.1079 N.ar    1  UNL1       -0.2406
     15 N         142.9133  136.4510  157.4710 N.ar    1  UNL1       -0.1536
     16 C         143.7220  134.5276  155.8003 C.3     1  UNL1        0.1866
     17 P         143.1194  133.3440  156.4974 P.3     1  UNL1        0.1385
     18 C         144.3513  133.2154  157.3437 C.3     1  UNL1        0.0697
     19 C         141.8877  133.4725  155.6512 C.3     1  UNL1        0.0697
     20 O         142.5169  132.1604  157.1946 O.2     1  UNL1       -0.3171
     21 O         139.5576  143.1923  160.9347 O.3     1  UNL1       -0.4765
     22 C         138.9617  143.8219  162.1588 C.3     1  UNL1        0.1954
     23 C         139.4828  145.1382  162.6545 C.3     1  UNL1        0.0500
     24 C         137.8446  143.1351  162.8872 C.3     1  UNL1        0.1855
     25 C         137.9345  140.5485  162.6603 C.3     1  UNL1        0.1743
     26 O         137.2718  141.8577  162.3488 O.3     1  UNL1       -0.3473
     27 O         143.8984  142.0254  163.5416 O.3     1  UNL1       -0.4534
     28 C         143.4549  141.4924  164.8717 C.ar    1  UNL1        0.1454
     29 C         143.1531  142.4386  165.9959 C.ar    1  UNL1        0.0388
     30 C         142.7095  141.9056  167.3260 C.ar    1  UNL1        0.0215
     31 C         142.5677  140.4265  167.5319 C.ar    1  UNL1        0.1059
     32 C         142.8695  139.4805  166.4077 C.ar    1  UNL1        0.0215
     33 C         143.3131  140.0135  165.0776 C.ar    1  UNL1        0.0388
     34 S         142.1242  139.8935  168.8620 S.O2    1  UNL1        0.0105
     35 C         141.6806  139.3606  170.1921 C.3     1  UNL1        0.1816
     36 O         141.1257  141.0072  168.9753 O.2     1  UNL1       -0.1686
     37 O         143.1226  138.7799  168.7487 O.2     1  UNL1       -0.1686
@<TRIPOS>BOND
     1    25    26    1
     2    26    24    1
     3    24    22    1
     4    22    23    1
     5    22    21    1
     6    21     1    1
     7     1     2   ar
     8     2     3   ar
     9     3    27    1
    10    27    28    1
    11    28    29   ar
    12    29    30   ar
    13    30    31   ar
    14    31    34    1
    15    34    35    1
    16    34    36    2
    17    34    37    2
    18    31    32   ar
    19    32    33   ar
    20     3     4   ar
    21     4     5   ar
    22     5     7    1
    23     7     8    2
    24     7     9   am
    25     9    11    1
    26    11    12   ar
    27    12    13   ar
    28    13    14   ar
    29    14    16    1
    30    16    17    1
    31    17    18    1
    32    17    19    1
    33    17    20    2
    34    14    15   ar
    35     5     6   ar
    36     6     1   ar
    37    33    28   ar
    38    15    11   ar
    39     9    10    1
@<TRIPOS>MOLECULE
*****
 37 39 0 0 0
SMALL
GASTEIGER

@<TRIPOS>ATOM
      1 C         141.0530  141.0459  158.8254 C.ar    1  UNL1        0.1417
      2 C         139.8753  140.7260  159.6975 C.ar    1  UNL1        0.0743
      3 C         139.3197  139.3330  159.7263 C.ar    1  UNL1        0.1485
      4 C         139.9419  138.2598  158.8830 C.ar    1  UNL1        0.0422
      5 C         141.1196  138.5797  158.0109 C.ar    1  UNL1        0.0597
      6 C         141.6752  139.9728  157.9821 C.ar    1  UNL1        0.0416
      7 C         141.7418  137.5065  157.1675 C.2     1  UNL1        0.2508
      8 O         143.2348  137.4048  157.0646 O.2     1  UNL1       -0.2698
      9 N         140.8711  136.5352  156.4271 N.am    1  UNL1       -0.2644
     10 H         139.8912  136.6020  156.4947 H       1  UNL1        0.1566
     11 C         141.4933  135.4620  155.5838 C.ar    1  UNL1        0.1557
     12 C         141.4502  135.3814  154.0866 C.ar    1  UNL1        0.0565
     13 C         142.1981  134.1506  153.6670 C.ar    1  UNL1        0.0986
     14 N         142.7034  133.4707  154.9049 N.ar    1  UNL1       -0.2406
     15 N         142.2678  134.2812  156.0895 N.ar    1  UNL1       -0.1536
     16 C         143.5038  132.2030  154.9503 C.3     1  UNL1        0.1866
     17 P         143.4554  131.3285  156.1680 P.3     1  UNL1        0.1385
     18 C         144.7950  131.8507  156.5960 C.3     1  UNL1        0.0697
     19 C         142.1160  130.8064  155.7401 C.3     1  UNL1        0.0697
     20 O         143.4072  130.4541  157.3858 O.2     1  UNL1       -0.3171
     21 O         141.6085  142.4389  158.7966 O.3     1  UNL1       -0.4765
     22 C         140.7191  143.6076  159.1016 C.3     1  UNL1        0.1954
     23 C         139.8792  144.2141  158.0167 C.3     1  UNL1        0.0500
     24 C         140.6693  144.1697  160.4914 C.3     1  UNL1        0.1855
     25 C         139.7344  146.2861  161.6733 C.3     1  UNL1        0.1743
     26 O         139.5030  145.0102  160.9192 O.3     1  UNL1       -0.3473
     27 O         138.1420  139.0131  160.5985 O.3     1  UNL1       -0.4534
     28 C         138.2607  139.1248  162.0896 C.ar    1  UNL1        0.1454
     29 C         137.9000  140.4086  162.7766 C.ar    1  UNL1        0.0388
     30 C         138.0187  140.5202  164.2678 C.ar    1  UNL1        0.0215
     31 C         138.4981  139.3481  165.0718 C.ar    1  UNL1        0.1059
     32 C         138.8587  138.0645  164.3848 C.ar    1  UNL1        0.0215
     33 C         138.7400  137.9528  162.8937 C.ar    1  UNL1        0.0388
     34 S         138.6168  139.4598  166.5630 S.O2    1  UNL1        0.0105
     35 C         138.7355  139.5715  168.0541 C.3     1  UNL1        0.1816
     36 O         137.5134  138.4568  166.7259 O.2     1  UNL1       -0.1686
     37 O         139.7201  140.4628  166.4000 O.2     1  UNL1       -0.1686
@<TRIPOS>BOND
     1    25    26    1
     2    26    24    1
     3    24    22    1
     4    22    23    1
     5    22    21    1
     6    21     1    1
     7     1     2   ar
     8     2     3   ar
     9     3    27    1
    10    27    28    1
    11    28    29   ar
    12    29    30   ar
    13    30    31   ar
    14    31    34    1
    15    34    35    1
    16    34    36    2
    17    34    37    2
    18    31    32   ar
    19    32    33   ar
    20     3     4   ar
    21     4     5   ar
    22     5     7    1
    23     7     8    2
    24     7     9   am
    25     9    11    1
    26    11    12   ar
    27    12    13   ar
    28    13    14   ar
    29    14    16    1
    30    16    17    1
    31    17    18    1
    32    17    19    1
    33    17    20    2
    34    14    15   ar
    35     5     6   ar
    36     6     1   ar
    37    33    28   ar
    38    15    11   ar
    39     9    10    1
@<TRIPOS>MOLECULE
*****
 37 39 0 0 0
SMALL
GASTEIGER

@<TRIPOS>ATOM
      1 C         141.0365  141.7806  162.0968 C.ar    1  UNL1        0.1417
      2 C         140.4231  141.0241  163.2376 C.ar    1  UNL1        0.0743
      3 C         140.5246  139.5284  163.2866 C.ar    1  UNL1        0.1485
      4 C         141.2396  138.7890  162.1948 C.ar    1  UNL1        0.0422
      5 C         141.8530  139.5455  161.0540 C.ar    1  UNL1        0.0597
      6 C         141.7514  141.0412  161.0050 C.ar    1  UNL1        0.0416
      7 C         142.5680  138.8061  159.9620 C.2     1  UNL1        0.2508
      8 O         144.0253  138.4815  160.1058 O.2     1  UNL1       -0.2698
      9 N         141.8256  138.3915  158.7264 N.am    1  UNL1       -0.2644
     10 H         140.8691  138.6046  158.6320 H       1  UNL1        0.1566
     11 C         142.5406  137.6521  157.6344 C.ar    1  UNL1        0.1557
     12 C         143.3273  138.2728  156.5182 C.ar    1  UNL1        0.0565
     13 C         143.8674  137.1666  155.6609 C.ar    1  UNL1        0.0986
     14 N         143.4143  135.8624  156.2474 N.ar    1  UNL1       -0.2406
     15 N         142.5944  136.1625  157.4670 N.ar    1  UNL1       -0.1536
     16 C         143.7265  134.4978  155.7087 C.3     1  UNL1        0.1866
     17 P         142.6430  133.4652  155.6080 P.3     1  UNL1        0.1385
     18 C         142.0864  134.1669  154.4047 C.3     1  UNL1        0.0697
     19 C         143.1997  132.7636  156.8112 C.3     1  UNL1        0.0697
     20 O         141.5596  132.4328  155.5072 O.2     1  UNL1       -0.3171
     21 O         140.9349  143.2763  162.0479 O.3     1  UNL1       -0.4765
     22 C         141.8910  144.1192  162.8386 C.3     1  UNL1        0.1954
     23 C         141.4811  145.4866  163.2993 C.3     1  UNL1        0.0500
     24 C         143.2571  143.5948  163.1686 C.3     1  UNL1        0.1855
     25 C         143.6647  142.3915  165.4349 C.3     1  UNL1        0.1743
     26 O         143.7499  143.6246  164.5850 O.3     1  UNL1       -0.3473
     27 O         139.9112  138.7720  164.4275 O.3     1  UNL1       -0.4534
     28 C         140.1492  139.2205  165.8390 C.ar    1  UNL1        0.1454
     29 C         141.5497  139.4356  166.3315 C.ar    1  UNL1        0.0388
     30 C         141.7878  139.8841  167.7429 C.ar    1  UNL1        0.0215
     31 C         140.6254  140.1176  168.6618 C.ar    1  UNL1        0.1059
     32 C         139.2250  139.9025  168.1693 C.ar    1  UNL1        0.0215
     33 C         138.9869  139.4539  166.7579 C.ar    1  UNL1        0.0388
     34 S         140.8634  140.5661  170.0733 S.O2    1  UNL1        0.0105
     35 C         141.1015  141.0146  171.4847 C.3     1  UNL1        0.1816
     36 O         139.6005  139.8809  170.5040 O.2     1  UNL1       -0.1686
     37 O         142.1264  141.2512  169.6425 O.2     1  UNL1       -0.1686
@<TRIPOS>BOND
     1    25    26    1
     2    26    24    1
     3    24    22    1
     4    22    23    1
     5    22    21    1
     6    21     1    1
     7     1     2   ar
     8     2     3   ar
     9     3    27    1
    10    27    28    1
    11    28    29   ar
    12    29    30   ar
    13    30    31   ar
    14    31    34    1
    15    34    35    1
    16    34    36    2
    17    34    37    2
    18    31    32   ar
    19    32    33   ar
    20     3     4   ar
    21     4     5   ar
    22     5     7    1
    23     7     8    2
    24     7     9   am
    25     9    11    1
    26    11    12   ar
    27    12    13   ar
    28    13    14   ar
    29    14    16    1
    30    16    17    1
    31    17    18    1
    32    17    19    1
    33    17    20    2
    34    14    15   ar
    35     5     6   ar
    36     6     1   ar
    37    33    28   ar
    38    15    11   ar
    39     9    10    1
