@<TRIPOS>MOLECULE
*****
 19 21 0 0 0
SMALL
GASTEIGER

@<TRIPOS>ATOM
      1 C         140.0082  140.8184  167.7355 C.ar    1  UNL1        0.1352
      2 C         139.6938  140.3534  169.1265 C.ar    1  UNL1        0.0366
      3 C         139.7364  141.3241  170.2693 C.ar    1  UNL1        0.0031
      4 C         140.0934  142.7597  170.0210 C.ar    1  UNL1       -0.0001
      5 C         140.4078  143.2246  168.6300 C.ar    1  UNL1       -0.0013
      6 C         140.3652  142.2540  167.4873 C.ar    1  UNL1        0.0118
      7 O         139.9656  139.8477  166.5927 O.3     1  UNL1       -0.4672
      8 C         137.7626  138.4741  166.6919 C.3     1  UNL1        0.0607
      9 C         138.6492  139.4582  165.9881 C.3     1  UNL1        0.2693
     10 C         138.2195  140.0530  164.6798 C.2     1  UNL1        0.3321
     11 N         138.3861  139.4240  163.3283 N.2     1  UNL1       -0.0616
     12 C         137.8173  140.3635  162.3065 C.3     1  UNL1        0.3131
     13 C         137.2991  141.5731  163.0266 C.3     1  UNL1        0.2575
     14 N         137.5477  141.3812  164.4934 N.pl3   1  UNL1       -0.2160
     15 H         137.3115  142.0156  165.2082 H       1  UNL1        0.2922
     16 C         140.6795  142.7189  166.0962 C.3     1  UNL1        0.0294
     17 C         139.8637  143.8093  165.4675 C.3     1  UNL1        0.0045
     18 C         139.6035  144.7403  164.3205 C.3     1  UNL1        0.0003
     19 C         138.7107  144.7670  165.5256 C.3     1  UNL1        0.0003
@<TRIPOS>BOND
     1     8     9    1
     2     9     7    1
     3     7     1    1
     4     1     2   ar
     5     2     3   ar
     6     3     4   ar
     7     4     5   ar
     8     5     6   ar
     9     6    16    1
    10    16    17    1
    11    17    18    1
    12    18    19    1
    13     9    10    1
    14    10    11    2
    15    11    12    1
    16    12    13    1
    17    13    14    1
    18     6     1   ar
    19    19    17    1
    20    14    10    1
    21    14    15    1
@<TRIPOS>MOLECULE
*****
 19 21 0 0 0
SMALL
GASTEIGER

@<TRIPOS>ATOM
      1 C         139.7143  141.7356  165.8258 C.ar    1  UNL1        0.1352
      2 C         138.7441  141.0173  164.9355 C.ar    1  UNL1        0.0366
      3 C         138.1003  139.7447  165.4003 C.ar    1  UNL1        0.0031
      4 C         138.4267  139.1905  166.7554 C.ar    1  UNL1       -0.0001
      5 C         139.3969  139.9089  167.6457 C.ar    1  UNL1       -0.0013
      6 C         140.0407  141.1815  167.1809 C.ar    1  UNL1        0.0118
      7 O         140.3581  143.0083  165.3609 O.3     1  UNL1       -0.4672
      8 C         138.4492  144.7601  165.5538 C.3     1  UNL1        0.0607
      9 C         139.5215  144.0909  164.7462 C.3     1  UNL1        0.2693
     10 C         139.7572  144.5045  163.3236 C.2     1  UNL1        0.3321
     11 N         139.6668  143.6139  162.1200 N.2     1  UNL1       -0.0616
     12 C         139.9785  144.4402  160.9076 C.3     1  UNL1        0.3131
     13 C         140.2616  145.8415  161.3618 C.3     1  UNL1        0.2575
     14 N         140.1248  145.8812  162.8550 N.pl3   1  UNL1       -0.2160
     15 H         140.2537  146.6720  163.4271 H       1  UNL1        0.2922
     16 C         141.0109  141.8999  168.0712 C.3     1  UNL1        0.0294
     17 C         140.5095  142.6911  169.2428 C.3     1  UNL1        0.0045
     18 C         139.8011  142.7489  170.5636 C.3     1  UNL1        0.0003
     19 C         140.3496  144.0035  169.9512 C.3     1  UNL1        0.0003
@<TRIPOS>BOND
     1     8     9    1
     2     9     7    1
     3     7     1    1
     4     1     2   ar
     5     2     3   ar
     6     3     4   ar
     7     4     5   ar
     8     5     6   ar
     9     6    16    1
    10    16    17    1
    11    17    18    1
    12    18    19    1
    13     9    10    1
    14    10    11    2
    15    11    12    1
    16    12    13    1
    17    13    14    1
    18     6     1   ar
    19    19    17    1
    20    14    10    1
    21    14    15    1
@<TRIPOS>MOLECULE
*****
 19 21 0 0 0
SMALL
GASTEIGER

@<TRIPOS>ATOM
      1 C         140.4091  140.2480  167.7114 C.ar    1  UNL1        0.1352
      2 C         140.0294  140.2085  169.1620 C.ar    1  UNL1        0.0366
      3 C         141.0000  139.6822  170.1772 C.ar    1  UNL1        0.0031
      4 C         142.3505  139.1955  169.7419 C.ar    1  UNL1       -0.0001
      5 C         142.7302  139.2351  168.2914 C.ar    1  UNL1       -0.0013
      6 C         141.7595  139.7613  167.2761 C.ar    1  UNL1        0.0118
      7 O         139.4384  140.7743  166.6961 O.3     1  UNL1       -0.4672
      8 C         137.9721  138.6298  166.6672 C.3     1  UNL1        0.0607
      9 C         138.5341  139.8287  165.9625 C.3     1  UNL1        0.2693
     10 C         138.1917  140.0822  164.5242 C.2     1  UNL1        0.3321
     11 N         138.4251  139.1376  163.3827 N.2     1  UNL1       -0.0616
     12 C         137.9335  139.7963  162.1280 C.3     1  UNL1        0.3131
     13 C         137.3962  141.1482  162.4941 C.3     1  UNL1        0.2575
     14 N         137.5559  141.3248  163.9750 N.pl3   1  UNL1       -0.2160
     15 H         137.2900  142.1172  164.4953 H       1  UNL1        0.2922
     16 C         142.1392  139.8009  165.8255 C.3     1  UNL1        0.0294
     17 C         141.8211  138.6366  164.9349 C.3     1  UNL1        0.0045
     18 C         141.8985  137.9668  163.5950 C.3     1  UNL1        0.0003
     19 C         141.1925  137.2898  164.7323 C.3     1  UNL1        0.0003
@<TRIPOS>BOND
     1     8     9    1
     2     9     7    1
     3     7     1    1
     4     1     2   ar
     5     2     3   ar
     6     3     4   ar
     7     4     5   ar
     8     5     6   ar
     9     6    16    1
    10    16    17    1
    11    17    18    1
    12    18    19    1
    13     9    10    1
    14    10    11    2
    15    11    12    1
    16    12    13    1
    17    13    14    1
    18     6     1   ar
    19    19    17    1
    20    14    10    1
    21    14    15    1
@<TRIPOS>MOLECULE
*****
 19 21 0 0 0
SMALL
GASTEIGER

@<TRIPOS>ATOM
      1 C         140.8426  142.6577  167.5308 C.ar    1  UNL1        0.1352
      2 C         140.2713  143.2466  168.7864 C.ar    1  UNL1        0.0366
      3 C         141.1260  143.3715  170.0127 C.ar    1  UNL1        0.0031
      4 C         142.5521  142.9075  169.9833 C.ar    1  UNL1       -0.0001
      5 C         143.1235  142.3186  168.7277 C.ar    1  UNL1       -0.0013
      6 C         142.2688  142.1937  167.5014 C.ar    1  UNL1        0.0118
      7 O         139.9879  142.5328  166.3044 O.3     1  UNL1       -0.4672
      8 C         138.8039  144.7408  165.6169 C.3     1  UNL1        0.0607
      9 C         139.8488  143.6944  165.3657 C.3     1  UNL1        0.2693
     10 C         140.7547  143.8096  164.1756 C.2     1  UNL1        0.3321
     11 N         141.5414  145.0242  163.7807 N.2     1  UNL1       -0.0616
     12 C         142.3058  144.6957  162.5326 C.3     1  UNL1        0.3131
     13 C         141.9916  143.2781  162.1562 C.3     1  UNL1        0.2575
     14 N         141.0330  142.7305  163.1716 N.pl3   1  UNL1       -0.2160
     15 H         140.6531  141.8223  163.1780 H       1  UNL1        0.2922
     16 C         142.8401  141.6048  166.2457 C.3     1  UNL1        0.0294
     17 C         143.8713  142.3629  165.4634 C.3     1  UNL1        0.0045
     18 C         144.8898  142.4127  164.3633 C.3     1  UNL1        0.0003
     19 C         144.6388  143.6262  165.2086 C.3     1  UNL1        0.0003
@<TRIPOS>BOND
     1     8     9    1
     2     9     7    1
     3     7     1    1
     4     1     2   ar
     5     2     3   ar
     6     3     4   ar
     7     4     5   ar
     8     5     6   ar
     9     6    16    1
    10    16    17    1
    11    17    18    1
    12    18    19    1
    13     9    10    1
    14    10    11    2
    15    11    12    1
    16    12    13    1
    17    13    14    1
    18     6     1   ar
    19    19    17    1
    20    14    10    1
    21    14    15    1
@<TRIPOS>MOLECULE
*****
 19 21 0 0 0
SMALL
GASTEIGER

@<TRIPOS>ATOM
      1 C         139.8944  142.3245  165.3399 C.ar    1  UNL1        0.1352
      2 C         140.0682  143.8143  165.3272 C.ar    1  UNL1        0.0366
      3 C         138.9931  144.6900  164.7551 C.ar    1  UNL1        0.0031
      4 C         137.7442  144.0758  164.1956 C.ar    1  UNL1       -0.0001
      5 C         137.5704  142.5860  164.2083 C.ar    1  UNL1       -0.0013
      6 C         138.6455  141.7103  164.7804 C.ar    1  UNL1        0.0118
      7 O         140.9695  141.4488  165.9121 O.3     1  UNL1       -0.4672
      8 C         143.2377  142.3170  166.8347 C.3     1  UNL1        0.0607
      9 C         141.8039  141.9377  167.0587 C.3     1  UNL1        0.2693
     10 C         141.2044  142.0473  168.4294 C.2     1  UNL1        0.3321
     11 N         140.4209  143.2117  168.9585 N.2     1  UNL1       -0.0616
     12 C         140.0155  142.8957  170.3677 C.3     1  UNL1        0.3131
     13 C         140.5486  141.5359  170.7095 C.3     1  UNL1        0.2575
     14 N         141.2834  141.0116  169.5116 N.pl3   1  UNL1       -0.2160
     15 H         141.7377  140.1406  169.4469 H       1  UNL1        0.2922
     16 C         138.4716  140.2205  164.7931 C.3     1  UNL1        0.0294
     17 C         138.2911  139.4975  166.0950 C.3     1  UNL1        0.0045
     18 C         137.6707  138.3860  166.8884 C.3     1  UNL1        0.0003
     19 C         138.5987  139.3570  167.5563 C.3     1  UNL1        0.0003
@<TRIPOS>BOND
     1     8     9    1
     2     9     7    1
     3     7     1    1
     4     1     2   ar
     5     2     3   ar
     6     3     4   ar
     7     4     5   ar
     8     5     6   ar
     9     6    16    1
    10    16    17    1
    11    17    18    1
    12    18    19    1
    13     9    10    1
    14    10    11    2
    15    11    12    1
    16    12    13    1
    17    13    14    1
    18     6     1   ar
    19    19    17    1
    20    14    10    1
    21    14    15    1
@<TRIPOS>MOLECULE
*****
 19 21 0 0 0
SMALL
GASTEIGER

@<TRIPOS>ATOM
      1 C         139.3557  142.5641  165.5740 C.ar    1  UNL1        0.1352
      2 C         138.3756  141.8964  164.6556 C.ar    1  UNL1        0.0366
      3 C         138.0680  140.4376  164.8197 C.ar    1  UNL1        0.0031
      4 C         138.7404  139.6464  165.9022 C.ar    1  UNL1       -0.0001
      5 C         139.7205  140.3141  166.8206 C.ar    1  UNL1       -0.0013
      6 C         140.0281  141.7730  166.6566 C.ar    1  UNL1        0.0118
      7 O         139.6634  144.0231  165.4100 O.3     1  UNL1       -0.4672
      8 C         139.3614  145.0964  163.0633 C.3     1  UNL1        0.0607
      9 C         140.2533  144.5254  164.1255 C.3     1  UNL1        0.2693
     10 C         141.7352  144.4565  163.9034 C.2     1  UNL1        0.3321
     11 N         142.7022  143.5997  164.6655 N.2     1  UNL1       -0.0616
     12 C         144.0748  143.8461  164.1132 C.3     1  UNL1        0.3131
     13 C         143.9562  144.8552  163.0096 C.3     1  UNL1        0.2575
     14 N         142.5103  145.2325  162.8800 N.pl3   1  UNL1       -0.2160
     15 H         142.1357  145.8763  162.2363 H       1  UNL1        0.2922
     16 C         141.0082  142.4407  167.5750 C.3     1  UNL1        0.0294
     17 C         140.5622  142.9276  168.9219 C.3     1  UNL1        0.0045
     18 C         140.4323  144.0349  169.9253 C.3     1  UNL1        0.0003
     19 C         139.9196  142.6635  170.2512 C.3     1  UNL1        0.0003
@<TRIPOS>BOND
     1     8     9    1
     2     9     7    1
     3     7     1    1
     4     1     2   ar
     5     2     3   ar
     6     3     4   ar
     7     4     5   ar
     8     5     6   ar
     9     6    16    1
    10    16    17    1
    11    17    18    1
    12    18    19    1
    13     9    10    1
    14    10    11    2
    15    11    12    1
    16    12    13    1
    17    13    14    1
    18     6     1   ar
    19    19    17    1
    20    14    10    1
    21    14    15    1
@<TRIPOS>MOLECULE
*****
 19 21 0 0 0
SMALL
GASTEIGER

@<TRIPOS>ATOM
      1 C         139.4812  141.6901  165.1981 C.ar    1  UNL1        0.1352
      2 C         138.1263  142.0720  164.6802 C.ar    1  UNL1        0.0366
      3 C         137.8356  143.4990  164.3208 C.ar    1  UNL1        0.0031
      4 C         138.8999  144.5440  164.4793 C.ar    1  UNL1       -0.0001
      5 C         140.2549  144.1621  164.9972 C.ar    1  UNL1       -0.0013
      6 C         140.5455  142.7351  165.3567 C.ar    1  UNL1        0.0118
      7 O         139.7718  140.2630  165.5576 O.3     1  UNL1       -0.4672
      8 C         137.8855  138.8393  166.6368 C.3     1  UNL1        0.0607
      9 C         139.1391  139.6518  166.7725 C.3     1  UNL1        0.2693
     10 C         139.7599  139.8531  168.1231 C.2     1  UNL1        0.3321
     11 N         141.2283  139.9540  168.4124 N.2     1  UNL1       -0.0616
     12 C         141.3972  140.1521  169.8896 C.3     1  UNL1        0.3131
     13 C         140.0331  140.1737  170.5134 C.3     1  UNL1        0.2575
     14 N         139.0213  139.9889  169.4216 N.pl3   1  UNL1       -0.2160
     15 H         138.0439  139.9616  169.5370 H       1  UNL1        0.2922
     16 C         141.9004  142.3531  165.8746 C.3     1  UNL1        0.0294
     17 C         143.1330  142.9496  165.2622 C.3     1  UNL1        0.0045
     18 C         143.9114  143.3610  164.0478 C.3     1  UNL1        0.0003
     19 C         144.4893  143.5714  165.4159 C.3     1  UNL1        0.0003
@<TRIPOS>BOND
     1     8     9    1
     2     9     7    1
     3     7     1    1
     4     1     2   ar
     5     2     3   ar
     6     3     4   ar
     7     4     5   ar
     8     5     6   ar
     9     6    16    1
    10    16    17    1
    11    17    18    1
    12    18    19    1
    13     9    10    1
    14    10    11    2
    15    11    12    1
    16    12    13    1
    17    13    14    1
    18     6     1   ar
    19    19    17    1
    20    14    10    1
    21    14    15    1
@<TRIPOS>MOLECULE
*****
 19 21 0 0 0
SMALL
GASTEIGER

@<TRIPOS>ATOM
      1 C         139.6697  140.7798  166.9969 C.ar    1  UNL1        0.1352
      2 C         139.3581  140.0125  168.2476 C.ar    1  UNL1        0.0366
      3 C         139.6524  140.6144  169.5896 C.ar    1  UNL1        0.0031
      4 C         140.2583  141.9835  169.6810 C.ar    1  UNL1       -0.0001
      5 C         140.5699  142.7508  168.4303 C.ar    1  UNL1       -0.0013
      6 C         140.2756  142.1489  167.0883 C.ar    1  UNL1        0.0118
      7 O         139.3754  140.1779  165.6548 O.3     1  UNL1       -0.4672
      8 C         139.2857  137.6666  164.9952 C.3     1  UNL1        0.0607
      9 C         140.0741  138.9215  165.2268 C.3     1  UNL1        0.2693
     10 C         141.5612  138.9200  165.0304 C.2     1  UNL1        0.3321
     11 N         142.5917  138.7126  166.1005 N.2     1  UNL1       -0.0616
     12 C         143.9462  138.7901  165.4608 C.3     1  UNL1        0.3131
     13 C         143.7530  139.0453  163.9954 C.3     1  UNL1        0.2575
     14 N         142.2789  139.1256  163.7294 N.pl3   1  UNL1       -0.2160
     15 H         141.8567  139.2853  162.8545 H       1  UNL1        0.2922
     16 C         140.5872  142.9162  165.8375 C.3     1  UNL1        0.0294
     17 C         139.6312  143.9594  165.3399 C.3     1  UNL1        0.0045
     18 C         138.5388  144.9526  165.6050 C.3     1  UNL1        0.0003
     19 C         139.0678  144.7733  164.2129 C.3     1  UNL1        0.0003
@<TRIPOS>BOND
     1     8     9    1
     2     9     7    1
     3     7     1    1
     4     1     2   ar
     5     2     3   ar
     6     3     4   ar
     7     4     5   ar
     8     5     6   ar
     9     6    16    1
    10    16    17    1
    11    17    18    1
    12    18    19    1
    13     9    10    1
    14    10    11    2
    15    11    12    1
    16    12    13    1
    17    13    14    1
    18     6     1   ar
    19    19    17    1
    20    14    10    1
    21    14    15    1
@<TRIPOS>MOLECULE
*****
 19 21 0 0 0
SMALL
GASTEIGER

@<TRIPOS>ATOM
      1 C         140.3219  142.4709  167.4179 C.ar    1  UNL1        0.1352
      2 C         140.3849  143.3017  168.6651 C.ar    1  UNL1        0.0366
      3 C         140.0724  142.6826  169.9952 C.ar    1  UNL1        0.0031
      4 C         139.6969  141.2327  170.0779 C.ar    1  UNL1       -0.0001
      5 C         139.6339  140.4019  168.8306 C.ar    1  UNL1       -0.0013
      6 C         139.9464  141.0210  167.5006 C.ar    1  UNL1        0.0118
      7 O         140.6344  143.0900  166.0877 O.3     1  UNL1       -0.4672
      8 C         138.7820  144.8800  165.7491 C.3     1  UNL1        0.0607
      9 C         139.5327  143.6782  165.2569 C.3     1  UNL1        0.2693
     10 C         139.1817  143.0646  163.9339 C.2     1  UNL1        0.3321
     11 N         137.8968  143.2593  163.1848 N.2     1  UNL1       -0.0616
     12 C         137.9750  142.4637  161.9156 C.3     1  UNL1        0.3131
     13 C         139.3083  141.7772  161.8803 C.3     1  UNL1        0.2575
     14 N         140.0540  142.1486  163.1276 N.pl3   1  UNL1       -0.2160
     15 H         140.9574  141.8445  163.3739 H       1  UNL1        0.2922
     16 C         139.8834  140.1902  166.2532 C.3     1  UNL1        0.0294
     17 C         138.9627  139.0080  166.1852 C.3     1  UNL1        0.0045
     18 C         137.7543  138.2723  166.6835 C.3     1  UNL1        0.0003
     19 C         138.5765  137.6960  165.5691 C.3     1  UNL1        0.0003
@<TRIPOS>BOND
     1     8     9    1
     2     9     7    1
     3     7     1    1
     4     1     2   ar
     5     2     3   ar
     6     3     4   ar
     7     4     5   ar
     8     5     6   ar
     9     6    16    1
    10    16    17    1
    11    17    18    1
    12    18    19    1
    13     9    10    1
    14    10    11    2
    15    11    12    1
    16    12    13    1
    17    13    14    1
    18     6     1   ar
    19    19    17    1
    20    14    10    1
    21    14    15    1
