@<TRIPOS>MOLECULE
*****
 33 36 0 0 0
SMALL
GASTEIGER

@<TRIPOS>ATOM
      1 N         139.7002  143.8689  159.6968 N.am    1  UNL1       -0.2684
      2 C         140.4723  142.6915  160.2140 C.2     1  UNL1        0.3078
      3 O         141.5475  142.0712  159.3718 O.2     1  UNL1       -0.2522
      4 N         140.1693  142.1344  161.5734 N.am    1  UNL1       -0.2605
      5 C         140.9414  140.9570  162.0905 C.3     1  UNL1        0.1164
      6 C         140.6384  140.3998  163.4498 C.3     1  UNL1        0.1137
      7 N         139.5632  141.0201  164.2919 N.pl3   1  UNL1       -0.2901
      8 C         138.7911  142.1976  163.7748 C.3     1  UNL1        0.0941
      9 C         137.7159  142.8178  164.6170 C.3     1  UNL1        0.0233
     10 C         139.0941  142.7547  162.4155 C.3     1  UNL1        0.1147
     11 H         138.9945  144.2760  160.2496 H       1  UNL1        0.1564
     12 C         139.2601  140.4630  165.6513 C.ar    1  UNL1        0.1554
     13 N         138.3026  139.3175  165.7960 N.ar    1  UNL1       -0.1974
     14 C         137.9995  138.7604  167.1552 C.ar    1  UNL1        0.2162
     15 N         137.0419  137.6148  167.2998 N.pl3   1  UNL1       -0.3274
     16 N         138.6539  139.3487  168.3699 N.ar    1  UNL1       -0.1949
     17 C         139.6114  140.4943  168.2253 C.ar    1  UNL1        0.1685
     18 C         139.9145  141.0514  166.8660 C.ar    1  UNL1        0.1486
     19 N         140.8933  142.1756  167.0335 N.ar    1  UNL1       -0.2194
     20 C         141.1951  142.3133  168.4964 C.ar    1  UNL1        0.1798
     21 N         140.4028  141.2742  169.2330 N.ar    1  UNL1       -0.2923
     22 C         140.4022  141.0537  170.7167 C.3     1  UNL1        0.1335
     23 H         136.6124  137.2286  166.5026 H       1  UNL1        0.1452
     24 H         136.8430  137.2492  168.1920 H       1  UNL1        0.1452
     25 C         140.6093  145.5404  155.6188 C.ar    1  UNL1        0.1385
     26 C         141.3175  146.0805  156.8257 C.ar    1  UNL1        0.0382
     27 C         141.0145  145.5234  158.1851 C.ar    1  UNL1        0.0175
     28 C         140.0032  144.4261  158.3375 C.ar    1  UNL1        0.0478
     29 C         139.2950  143.8859  157.1306 C.ar    1  UNL1       -0.0053
     30 C         138.2837  142.7886  157.2831 C.3     1  UNL1        0.0324
     31 C         139.5980  144.4431  155.7713 C.ar    1  UNL1        0.0339
     32 C         140.3993  147.4531  153.8732 C.3     1  UNL1        0.2525
     33 O         140.9122  146.0975  154.2594 O.3     1  UNL1       -0.4714
@<TRIPOS>BOND
     1    32    33    1
     2    33    25    1
     3    25    26   ar
     4    26    27   ar
     5    27    28   ar
     6    28     1    1
     7     1     2   am
     8     2     3    2
     9     2     4   am
    10     4     5    1
    11     5     6    1
    12     6     7    1
    13     7    12    1
    14    12    13   ar
    15    13    14   ar
    16    14    15    1
    17    14    16   ar
    18    16    17   ar
    19    17    18   ar
    20    18    19   ar
    21    19    20   ar
    22    20    21   ar
    23    21    22    1
    24     7     8    1
    25     8     9    1
    26     8    10    1
    27    28    29   ar
    28    29    30    1
    29    29    31   ar
    30    31    25   ar
    31    10     4    1
    32    18    12   ar
    33    21    17   ar
    34     1    11    1
    35    15    23    1
    36    15    24    1
@<TRIPOS>MOLECULE
*****
 33 36 0 0 0
SMALL
GASTEIGER

@<TRIPOS>ATOM
      1 N         142.2265  136.5488  156.9118 N.am    1  UNL1       -0.2684
      2 C         143.1702  137.7109  156.8187 C.2     1  UNL1        0.3078
      3 O         144.1990  137.7561  155.7280 O.2     1  UNL1       -0.2522
      4 N         143.0852  138.8280  157.8162 N.am    1  UNL1       -0.2605
      5 C         144.0289  139.9901  157.7230 C.3     1  UNL1        0.1164
      6 C         143.9439  141.1072  158.7206 C.3     1  UNL1        0.1137
      7 N         142.9151  141.0619  159.8112 N.pl3   1  UNL1       -0.2901
      8 C         141.9713  139.8998  159.9043 C.3     1  UNL1        0.0941
      9 C         140.9425  139.8546  160.9950 C.3     1  UNL1        0.0233
     10 C         142.0563  138.7827  158.9068 C.3     1  UNL1        0.1147
     11 H         141.5513  136.5191  157.6276 H       1  UNL1        0.1564
     12 C         142.8300  142.1790  160.8087 C.ar    1  UNL1        0.1554
     13 N         141.9243  143.3468  160.5516 N.ar    1  UNL1       -0.1974
     14 C         141.8392  144.4638  161.5490 C.ar    1  UNL1        0.2162
     15 N         140.9336  145.6317  161.2918 N.pl3   1  UNL1       -0.3274
     16 N         142.6596  144.4130  162.8037 N.ar    1  UNL1       -0.1949
     17 C         143.5652  143.2452  163.0609 C.ar    1  UNL1        0.1685
     18 C         143.6504  142.1282  162.0634 C.ar    1  UNL1        0.1486
     19 N         144.6244  141.1139  162.5854 N.ar    1  UNL1       -0.2194
     20 C         145.1412  141.6041  163.9054 C.ar    1  UNL1        0.1798
     21 N         144.4866  142.9213  164.1994 N.ar    1  UNL1       -0.2923
     22 C         144.7136  143.7662  165.4178 C.3     1  UNL1        0.1335
     23 H         140.3951  145.6650  160.4683 H       1  UNL1        0.1452
     24 H         140.8777  146.3648  161.9466 H       1  UNL1        0.1452
     25 C         142.4816  133.1977  153.9192 C.ar    1  UNL1        0.1385
     26 C         141.7966  134.4806  153.5520 C.ar    1  UNL1        0.0382
     27 C         141.7116  135.5976  154.5495 C.ar    1  UNL1        0.0175
     28 C         142.3115  135.4318  155.9142 C.ar    1  UNL1        0.0478
     29 C         142.9965  134.1488  156.2815 C.ar    1  UNL1       -0.0053
     30 C         143.5965  133.9829  157.6462 C.3     1  UNL1        0.0324
     31 C         143.0816  133.0318  155.2840 C.ar    1  UNL1        0.0339
     32 C         143.5059  130.9349  153.1572 C.3     1  UNL1        0.2525
     33 O         142.5667  132.0806  152.9218 O.3     1  UNL1       -0.4714
@<TRIPOS>BOND
     1    32    33    1
     2    33    25    1
     3    25    26   ar
     4    26    27   ar
     5    27    28   ar
     6    28     1    1
     7     1     2   am
     8     2     3    2
     9     2     4   am
    10     4     5    1
    11     5     6    1
    12     6     7    1
    13     7    12    1
    14    12    13   ar
    15    13    14   ar
    16    14    15    1
    17    14    16   ar
    18    16    17   ar
    19    17    18   ar
    20    18    19   ar
    21    19    20   ar
    22    20    21   ar
    23    21    22    1
    24     7     8    1
    25     8     9    1
    26     8    10    1
    27    28    29   ar
    28    29    30    1
    29    29    31   ar
    30    31    25   ar
    31    10     4    1
    32    18    12   ar
    33    21    17   ar
    34     1    11    1
    35    15    23    1
    36    15    24    1
@<TRIPOS>MOLECULE
*****
 33 36 0 0 0
SMALL
GASTEIGER

@<TRIPOS>ATOM
      1 N         140.4153  140.2506  164.5553 N.am    1  UNL1       -0.2684
      2 C         141.3920  139.2297  164.0518 C.2     1  UNL1        0.3078
      3 O         142.1905  138.4124  165.0236 O.2     1  UNL1       -0.2522
      4 N         141.5703  139.0261  162.5764 N.am    1  UNL1       -0.2605
      5 C         142.5471  138.0051  162.0728 C.3     1  UNL1        0.1164
      6 C         142.7254  137.8014  160.5975 C.3     1  UNL1        0.1137
      7 N         141.9269  138.6187  159.6257 N.pl3   1  UNL1       -0.2901
      8 C         140.9501  139.6397  160.1292 C.3     1  UNL1        0.0941
      9 C         140.1516  140.4569  159.1574 C.3     1  UNL1        0.0233
     10 C         140.7718  139.8433  161.6046 C.3     1  UNL1        0.1147
     11 H         139.8912  140.7870  163.9175 H       1  UNL1        0.1564
     12 C         142.1051  138.4151  158.1503 C.ar    1  UNL1        0.1554
     13 N         141.2023  137.4743  157.4085 N.ar    1  UNL1       -0.1974
     14 C         141.3805  137.2707  155.9332 C.ar    1  UNL1        0.2162
     15 N         140.4778  136.3299  155.1915 N.pl3   1  UNL1       -0.3274
     16 N         142.4614  138.0077  155.1995 N.ar    1  UNL1       -0.1949
     17 C         143.3641  138.9485  155.9411 C.ar    1  UNL1        0.1685
     18 C         143.1860  139.1522  157.4165 C.ar    1  UNL1        0.1486
     19 N         144.2201  140.1364  157.8769 N.ar    1  UNL1       -0.2194
     20 C         145.0374  140.5410  156.6859 C.ar    1  UNL1        0.1798
     21 N         144.5084  139.8068  155.4896 N.ar    1  UNL1       -0.2923
     22 C         145.0318  139.9125  154.0878 C.3     1  UNL1        0.1335
     23 H         139.7683  135.8461  155.6730 H       1  UNL1        0.1452
     24 H         140.5948  136.1962  154.2231 H       1  UNL1        0.1452
     25 C         139.8804  140.8617  168.9815 C.ar    1  UNL1        0.1385
     26 C         140.9142  141.6515  168.2348 C.ar    1  UNL1        0.0382
     27 C         141.0924  141.4478  166.7595 C.ar    1  UNL1        0.0175
     28 C         140.2370  140.4543  166.0307 C.ar    1  UNL1        0.0478
     29 C         139.2032  139.6645  166.7774 C.ar    1  UNL1       -0.0053
     30 C         138.3478  138.6709  166.0486 C.3     1  UNL1        0.0324
     31 C         139.0249  139.8682  168.2527 C.ar    1  UNL1        0.0339
     32 C         140.8410  141.5806  171.2859 C.3     1  UNL1        0.2525
     33 O         139.7020  141.0653  170.4569 O.3     1  UNL1       -0.4714
@<TRIPOS>BOND
     1    32    33    1
     2    33    25    1
     3    25    26   ar
     4    26    27   ar
     5    27    28   ar
     6    28     1    1
     7     1     2   am
     8     2     3    2
     9     2     4   am
    10     4     5    1
    11     5     6    1
    12     6     7    1
    13     7    12    1
    14    12    13   ar
    15    13    14   ar
    16    14    15    1
    17    14    16   ar
    18    16    17   ar
    19    17    18   ar
    20    18    19   ar
    21    19    20   ar
    22    20    21   ar
    23    21    22    1
    24     7     8    1
    25     8     9    1
    26     8    10    1
    27    28    29   ar
    28    29    30    1
    29    29    31   ar
    30    31    25   ar
    31    10     4    1
    32    18    12   ar
    33    21    17   ar
    34     1    11    1
    35    15    23    1
    36    15    24    1
@<TRIPOS>MOLECULE
*****
 33 36 0 0 0
SMALL
GASTEIGER

@<TRIPOS>ATOM
      1 N         141.9043  140.5154  164.7538 N.am    1  UNL1       -0.2684
      2 C         142.7866  139.4847  164.1143 C.2     1  UNL1        0.3078
      3 O         143.7756  138.7234  164.9465 O.2     1  UNL1       -0.2522
      4 N         142.6802  139.2152  162.6425 N.am    1  UNL1       -0.2605
      5 C         143.5626  138.1846  162.0030 C.3     1  UNL1        0.1164
      6 C         143.4561  137.9151  160.5312 C.3     1  UNL1        0.1137
      7 N         142.4672  138.6763  159.6991 N.pl3   1  UNL1       -0.2901
      8 C         141.5848  139.7070  160.3386 C.3     1  UNL1        0.0941
      9 C         140.5959  140.4683  159.5064 C.3     1  UNL1        0.0233
     10 C         141.6913  139.9765  161.8104 C.3     1  UNL1        0.1147
     11 H         141.2552  141.0150  164.2076 H       1  UNL1        0.1564
     12 C         142.3606  138.4069  158.2273 C.ar    1  UNL1        0.1554
     13 N         141.3150  137.4633  157.7113 N.ar    1  UNL1       -0.1974
     14 C         141.2084  137.1938  156.2397 C.ar    1  UNL1        0.2162
     15 N         140.1627  136.2502  155.7237 N.pl3   1  UNL1       -0.3274
     16 N         142.1474  137.8680  155.2838 N.ar    1  UNL1       -0.1949
     17 C         143.1931  138.8116  155.7997 C.ar    1  UNL1        0.1685
     18 C         143.2997  139.0811  157.2714 C.ar    1  UNL1        0.1486
     19 N         144.4224  140.0527  157.4847 N.ar    1  UNL1       -0.2194
     20 C         145.0097  140.3837  156.1447 C.ar    1  UNL1        0.1798
     21 N         144.2499  139.6167  155.1033 N.ar    1  UNL1       -0.2923
     22 C         144.5027  139.6491  153.6251 C.3     1  UNL1        0.1335
     23 H         139.5463  135.8077  156.3510 H       1  UNL1        0.1452
     24 H         140.0928  136.0733  154.7577 H       1  UNL1        0.1452
     25 C         142.2237  141.3238  169.1691 C.ar    1  UNL1        0.1385
     26 C         141.3180  140.2376  168.6691 C.ar    1  UNL1        0.0382
     27 C         141.2116  139.9682  167.1973 C.ar    1  UNL1        0.0175
     28 C         142.0108  140.7848  166.2256 C.ar    1  UNL1        0.0478
     29 C         142.9164  141.8710  166.7256 C.ar    1  UNL1       -0.0053
     30 C         143.7156  142.6877  165.7538 C.3     1  UNL1        0.0324
     31 C         143.0229  142.1404  168.1973 C.ar    1  UNL1        0.0339
     32 C         141.0877  141.7509  171.4663 C.3     1  UNL1        0.2525
     33 O         142.3302  141.5933  170.6409 O.3     1  UNL1       -0.4714
@<TRIPOS>BOND
     1    32    33    1
     2    33    25    1
     3    25    26   ar
     4    26    27   ar
     5    27    28   ar
     6    28     1    1
     7     1     2   am
     8     2     3    2
     9     2     4   am
    10     4     5    1
    11     5     6    1
    12     6     7    1
    13     7    12    1
    14    12    13   ar
    15    13    14   ar
    16    14    15    1
    17    14    16   ar
    18    16    17   ar
    19    17    18   ar
    20    18    19   ar
    21    19    20   ar
    22    20    21   ar
    23    21    22    1
    24     7     8    1
    25     8     9    1
    26     8    10    1
    27    28    29   ar
    28    29    30    1
    29    29    31   ar
    30    31    25   ar
    31    10     4    1
    32    18    12   ar
    33    21    17   ar
    34     1    11    1
    35    15    23    1
    36    15    24    1
@<TRIPOS>MOLECULE
*****
 33 36 0 0 0
SMALL
GASTEIGER

@<TRIPOS>ATOM
      1 N         140.1237  139.6020  163.4589 N.am    1  UNL1       -0.2684
      2 C         141.1374  138.6042  162.9829 C.2     1  UNL1        0.3078
      3 O         141.7187  137.6092  163.9432 O.2     1  UNL1       -0.2522
      4 N         141.5699  138.6013  161.5466 N.am    1  UNL1       -0.2605
      5 C         142.5837  137.6035  161.0706 C.3     1  UNL1        0.1164
      6 C         143.0162  137.6006  159.6343 C.3     1  UNL1        0.1137
      7 N         142.4349  138.5955  158.6740 N.pl3   1  UNL1       -0.2901
      8 C         141.4211  139.5934  159.1500 C.3     1  UNL1        0.0941
      9 C         140.8398  140.5883  158.1897 C.3     1  UNL1        0.0233
     10 C         140.9886  139.5963  160.5863 C.3     1  UNL1        0.1147
     11 H         139.7421  140.2550  162.8286 H       1  UNL1        0.1564
     12 C         142.8673  138.5927  157.2377 C.ar    1  UNL1        0.1554
     13 N         144.0273  139.4382  156.8020 N.ar    1  UNL1       -0.1974
     14 C         144.4597  139.4354  155.3658 C.ar    1  UNL1        0.2162
     15 N         145.6197  140.2809  154.9301 N.pl3   1  UNL1       -0.3274
     16 N         143.7323  138.5872  154.3651 N.ar    1  UNL1       -0.1949
     17 C         142.5724  137.7417  154.8007 C.ar    1  UNL1        0.1685
     18 C         142.1399  137.7445  156.2370 C.ar    1  UNL1        0.1486
     19 N         140.9699  136.8154  156.3706 N.ar    1  UNL1       -0.2194
     20 C         140.6794  136.2383  155.0169 C.ar    1  UNL1        0.1798
     21 N         141.6698  136.8109  154.0466 N.ar    1  UNL1       -0.2923
     22 C         141.7443  136.5060  152.5798 C.3     1  UNL1        0.1335
     23 H         146.0972  140.8376  155.5868 H       1  UNL1        0.1452
     24 H         145.9035  140.2790  153.9874 H       1  UNL1        0.1452
     25 C         138.8262  139.6107  167.7678 C.ar    1  UNL1        0.1385
     26 C         138.0803  138.7853  166.7616 C.ar    1  UNL1        0.0382
     27 C         138.5128  138.7824  165.3253 C.ar    1  UNL1        0.0175
     28 C         139.6912  139.6049  164.8952 C.ar    1  UNL1        0.0478
     29 C         140.4371  140.4302  165.9014 C.ar    1  UNL1       -0.0053
     30 C         141.6154  141.2526  165.4713 C.3     1  UNL1        0.0324
     31 C         140.0046  140.4331  167.3377 C.ar    1  UNL1        0.0339
     32 C         139.0390  140.5528  170.1796 C.3     1  UNL1        0.2525
     33 O         138.3937  139.6136  169.2041 O.3     1  UNL1       -0.4714
@<TRIPOS>BOND
     1    32    33    1
     2    33    25    1
     3    25    26   ar
     4    26    27   ar
     5    27    28   ar
     6    28     1    1
     7     1     2   am
     8     2     3    2
     9     2     4   am
    10     4     5    1
    11     5     6    1
    12     6     7    1
    13     7    12    1
    14    12    13   ar
    15    13    14   ar
    16    14    15    1
    17    14    16   ar
    18    16    17   ar
    19    17    18   ar
    20    18    19   ar
    21    19    20   ar
    22    20    21   ar
    23    21    22    1
    24     7     8    1
    25     8     9    1
    26     8    10    1
    27    28    29   ar
    28    29    30    1
    29    29    31   ar
    30    31    25   ar
    31    10     4    1
    32    18    12   ar
    33    21    17   ar
    34     1    11    1
    35    15    23    1
    36    15    24    1
@<TRIPOS>MOLECULE
*****
 33 36 0 0 0
SMALL
GASTEIGER

@<TRIPOS>ATOM
      1 N         142.8534  140.4926  159.4800 N.am    1  UNL1       -0.2684
      2 C         143.2648  139.5737  160.5918 C.2     1  UNL1        0.3078
      3 O         144.4060  138.6204  160.3934 O.2     1  UNL1       -0.2522
      4 N         142.5353  139.6078  161.9020 N.am    1  UNL1       -0.2605
      5 C         142.9468  138.6888  163.0138 C.3     1  UNL1        0.1164
      6 C         142.2172  138.7230  164.3240 C.3     1  UNL1        0.1137
      7 N         141.0762  139.6762  164.5223 N.pl3   1  UNL1       -0.2901
      8 C         140.6646  140.5952  163.4105 C.3     1  UNL1        0.0941
      9 C         139.5235  141.5483  163.6089 C.3     1  UNL1        0.0233
     10 C         141.3942  140.5610  162.1003 C.3     1  UNL1        0.1147
     11 H         142.1044  141.1182  159.6102 H       1  UNL1        0.1564
     12 C         140.3465  139.7104  165.8325 C.ar    1  UNL1        0.1554
     13 N         139.1078  138.8862  166.0228 N.ar    1  UNL1       -0.1974
     14 C         138.3781  138.9204  167.3329 C.ar    1  UNL1        0.2162
     15 N         137.1394  138.0961  167.5233 N.pl3   1  UNL1       -0.3274
     16 N         138.8872  139.7788  168.4527 N.ar    1  UNL1       -0.1949
     17 C         140.1259  140.6030  168.2624 C.ar    1  UNL1        0.1685
     18 C         140.8556  140.5688  166.9523 C.ar    1  UNL1        0.1486
     19 N         142.0407  141.4822  167.0578 N.ar    1  UNL1       -0.2194
     20 C         142.0435  142.0809  168.4331 C.ar    1  UNL1        0.1798
     21 N         140.8601  141.5375  169.1776 N.ar    1  UNL1       -0.2923
     22 C         140.4780  141.8703  170.5895 C.3     1  UNL1        0.1335
     23 H         136.8052  137.5327  166.7883 H       1  UNL1        0.1452
     24 H         136.6605  138.1186  168.3832 H       1  UNL1        0.1452
     25 C         145.0420  140.3901  155.5495 C.ar    1  UNL1        0.1385
     26 C         144.0394  139.3238  155.8776 C.ar    1  UNL1        0.0382
     27 C         143.3098  139.3579  157.1878 C.ar    1  UNL1        0.0175
     28 C         143.5829  140.4584  158.1698 C.ar    1  UNL1        0.0478
     29 C         144.5856  141.5247  157.8417 C.ar    1  UNL1       -0.0053
     30 C         144.8587  142.6251  158.8237 C.3     1  UNL1        0.0324
     31 C         145.3151  141.4905  156.5315 C.ar    1  UNL1        0.0339
     32 C         146.7799  141.4180  153.9145 C.3     1  UNL1        0.2525
     33 O         145.7717  140.3560  154.2393 O.3     1  UNL1       -0.4714
@<TRIPOS>BOND
     1    32    33    1
     2    33    25    1
     3    25    26   ar
     4    26    27   ar
     5    27    28   ar
     6    28     1    1
     7     1     2   am
     8     2     3    2
     9     2     4   am
    10     4     5    1
    11     5     6    1
    12     6     7    1
    13     7    12    1
    14    12    13   ar
    15    13    14   ar
    16    14    15    1
    17    14    16   ar
    18    16    17   ar
    19    17    18   ar
    20    18    19   ar
    21    19    20   ar
    22    20    21   ar
    23    21    22    1
    24     7     8    1
    25     8     9    1
    26     8    10    1
    27    28    29   ar
    28    29    30    1
    29    29    31   ar
    30    31    25   ar
    31    10     4    1
    32    18    12   ar
    33    21    17   ar
    34     1    11    1
    35    15    23    1
    36    15    24    1
@<TRIPOS>MOLECULE
*****
 33 36 0 0 0
SMALL
GASTEIGER

@<TRIPOS>ATOM
      1 N         142.0978  143.9532  159.9617 N.am    1  UNL1       -0.2684
      2 C         141.1895  142.8872  160.4988 C.2     1  UNL1        0.3078
      3 O         139.9910  142.4543  159.7073 O.2     1  UNL1       -0.2522
      4 N         141.4795  142.2541  161.8274 N.am    1  UNL1       -0.2605
      5 C         140.5711  141.1881  162.3645 C.3     1  UNL1        0.1164
      6 C         140.8611  140.5550  163.6930 C.3     1  UNL1        0.1137
      7 N         142.0595  140.9880  164.4845 N.pl3   1  UNL1       -0.2901
      8 C         142.9678  142.0540  163.9474 C.3     1  UNL1        0.0941
      9 C         144.1662  142.4868  164.7389 C.3     1  UNL1        0.0233
     10 C         142.6779  142.6871  162.6188 C.3     1  UNL1        0.1147
     11 H         142.8843  144.2373  160.4812 H       1  UNL1        0.1564
     12 C         142.3495  140.3549  165.8131 C.ar    1  UNL1        0.1554
     13 N         143.2268  139.1405  165.8897 N.ar    1  UNL1       -0.1974
     14 C         143.5169  138.5075  167.2181 C.ar    1  UNL1        0.2162
     15 N         144.3942  137.2931  167.2948 N.pl3   1  UNL1       -0.3274
     16 N         142.9298  139.0886  168.4701 N.ar    1  UNL1       -0.1949
     17 C         142.0525  140.3030  168.3936 C.ar    1  UNL1        0.1685
     18 C         141.7624  140.9361  167.0650 C.ar    1  UNL1        0.1486
     19 N         140.8687  142.1176  167.2999 N.ar    1  UNL1       -0.2194
     20 C         140.6064  142.2147  168.7736 C.ar    1  UNL1        0.1798
     21 N         141.3381  141.0932  169.4495 N.ar    1  UNL1       -0.2923
     22 C         141.3527  140.8115  170.9227 C.3     1  UNL1        0.1335
     23 H         144.7796  136.9116  166.4731 H       1  UNL1        0.1452
     24 H         144.5846  136.8776  168.1667 H       1  UNL1        0.1452
     25 C         141.2278  145.8525  155.9760 C.ar    1  UNL1        0.1385
     26 C         140.4665  146.2837  157.1944 C.ar    1  UNL1        0.0382
     27 C         140.7565  145.6506  158.5230 C.ar    1  UNL1        0.0175
     28 C         141.8078  144.5863  158.6331 C.ar    1  UNL1        0.0478
     29 C         142.5690  144.1551  157.4147 C.ar    1  UNL1       -0.0053
     30 C         143.6203  143.0908  157.5249 C.3     1  UNL1        0.0324
     31 C         142.2790  144.7882  156.0862 C.ar    1  UNL1        0.0339
     32 C         139.7404  147.3743  154.4855 C.3     1  UNL1        0.2525
     33 O         140.9379  146.4856  154.6474 O.3     1  UNL1       -0.4714
@<TRIPOS>BOND
     1    32    33    1
     2    33    25    1
     3    25    26   ar
     4    26    27   ar
     5    27    28   ar
     6    28     1    1
     7     1     2   am
     8     2     3    2
     9     2     4   am
    10     4     5    1
    11     5     6    1
    12     6     7    1
    13     7    12    1
    14    12    13   ar
    15    13    14   ar
    16    14    15    1
    17    14    16   ar
    18    16    17   ar
    19    17    18   ar
    20    18    19   ar
    21    19    20   ar
    22    20    21   ar
    23    21    22    1
    24     7     8    1
    25     8     9    1
    26     8    10    1
    27    28    29   ar
    28    29    30    1
    29    29    31   ar
    30    31    25   ar
    31    10     4    1
    32    18    12   ar
    33    21    17   ar
    34     1    11    1
    35    15    23    1
    36    15    24    1
@<TRIPOS>MOLECULE
*****
 33 36 0 0 0
SMALL
GASTEIGER

@<TRIPOS>ATOM
      1 N         140.9863  140.9434  164.6254 N.am    1  UNL1       -0.2684
      2 C         142.2152  140.1867  164.2169 C.2     1  UNL1        0.3078
      3 O         143.1246  139.6123  165.2626 O.2     1  UNL1       -0.2522
      4 N         142.5349  140.0042  162.7627 N.am    1  UNL1       -0.2605
      5 C         143.7638  139.2474  162.3542 C.3     1  UNL1        0.1164
      6 C         144.0835  139.0649  160.9001 C.3     1  UNL1        0.1137
      7 N         143.1742  139.6392  159.8546 N.pl3   1  UNL1       -0.2901
      8 C         141.9452  140.3960  160.2631 C.3     1  UNL1        0.0941
      9 C         141.0360  140.9703  159.2174 C.3     1  UNL1        0.0233
     10 C         141.6256  140.5785  161.7172 C.3     1  UNL1        0.1147
     11 H         140.3895  141.3204  163.9392 H       1  UNL1        0.1564
     12 C         143.4938  139.4568  158.4004 C.ar    1  UNL1        0.1554
     13 N         143.0037  138.2407  157.6715 N.ar    1  UNL1       -0.1974
     14 C         143.3232  138.0582  156.2175 C.ar    1  UNL1        0.2162
     15 N         142.8331  136.8422  155.4887 N.pl3   1  UNL1       -0.3274
     16 N         144.1329  139.0917  155.4920 N.ar    1  UNL1       -0.1949
     17 C         144.6230  140.3078  156.2208 C.ar    1  UNL1        0.1685
     18 C         144.3035  140.4903  157.6749 C.ar    1  UNL1        0.1486
     19 N         144.9184  141.7819  158.1261 N.ar    1  UNL1       -0.2194
     20 C         145.6180  142.3976  156.9508 C.ar    1  UNL1        0.1798
     21 N         145.4355  141.4866  155.7732 N.ar    1  UNL1       -0.2923
     22 C         145.9713  141.7144  154.3908 C.3     1  UNL1        0.1335
     23 H         142.3017  136.1638  155.9648 H       1  UNL1        0.1452
     24 H         143.0429  136.7224  154.5343 H       1  UNL1        0.1452
     25 C         140.0273  141.4909  168.9879 C.ar    1  UNL1        0.1385
     26 C         140.8680  142.5059  168.2717 C.ar    1  UNL1        0.0382
     27 C         141.1877  142.3234  166.8175 C.ar    1  UNL1        0.0175
     28 C         140.6666  141.1259  166.0796 C.ar    1  UNL1        0.0478
     29 C         139.8259  140.1109  166.7958 C.ar    1  UNL1       -0.0053
     30 C         139.3049  138.9135  166.0579 C.3     1  UNL1        0.0324
     31 C         139.5063  140.2934  168.2499 C.ar    1  UNL1        0.0339
     32 C         140.8147  141.8751  171.4337 C.3     1  UNL1        0.2525
     33 O         139.7075  141.6733  170.4420 O.3     1  UNL1       -0.4714
@<TRIPOS>BOND
     1    32    33    1
     2    33    25    1
     3    25    26   ar
     4    26    27   ar
     5    27    28   ar
     6    28     1    1
     7     1     2   am
     8     2     3    2
     9     2     4   am
    10     4     5    1
    11     5     6    1
    12     6     7    1
    13     7    12    1
    14    12    13   ar
    15    13    14   ar
    16    14    15    1
    17    14    16   ar
    18    16    17   ar
    19    17    18   ar
    20    18    19   ar
    21    19    20   ar
    22    20    21   ar
    23    21    22    1
    24     7     8    1
    25     8     9    1
    26     8    10    1
    27    28    29   ar
    28    29    30    1
    29    29    31   ar
    30    31    25   ar
    31    10     4    1
    32    18    12   ar
    33    21    17   ar
    34     1    11    1
    35    15    23    1
    36    15    24    1
@<TRIPOS>MOLECULE
*****
 33 36 0 0 0
SMALL
GASTEIGER

@<TRIPOS>ATOM
      1 N         139.8752  139.8235  164.9106 N.am    1  UNL1       -0.2684
      2 C         141.1467  139.1132  164.5521 C.2     1  UNL1        0.3078
      3 O         141.9152  138.3731  165.6066 O.2     1  UNL1       -0.2522
      4 N         141.6498  139.1428  163.1393 N.am    1  UNL1       -0.2605
      5 C         142.9213  138.4323  162.7809 C.3     1  UNL1        0.1164
      6 C         143.4244  138.4620  161.3681 C.3     1  UNL1        0.1137
      7 N         142.6559  139.2020  160.3137 N.pl3   1  UNL1       -0.2901
      8 C         141.3843  139.9125  160.6722 C.3     1  UNL1        0.0941
      9 C         140.6159  140.6525  159.6177 C.3     1  UNL1        0.0233
     10 C         140.8813  139.8828  162.0850 C.3     1  UNL1        0.1147
     11 H         139.3708  140.3093  164.2185 H       1  UNL1        0.1564
     12 C         143.1589  139.2317  158.9009 C.ar    1  UNL1        0.1554
     13 N         142.8961  138.0718  157.9867 N.ar    1  UNL1       -0.1974
     14 C         143.3991  138.1014  156.5739 C.ar    1  UNL1        0.2162
     15 N         143.1363  136.9415  155.6597 N.pl3   1  UNL1       -0.3274
     16 N         144.1648  139.2909  156.0752 N.ar    1  UNL1       -0.1949
     17 C         144.4276  140.4507  156.9893 C.ar    1  UNL1        0.1685
     18 C         143.9247  140.4212  158.4021 C.ar    1  UNL1        0.1486
     19 N         144.3340  141.7020  159.0668 N.ar    1  UNL1       -0.2194
     20 C         145.0900  142.5232  158.0648 C.ar    1  UNL1        0.1798
     21 N         145.1478  141.7499  156.7808 N.ar    1  UNL1       -0.2923
     22 C         145.8097  142.1972  155.5112 C.3     1  UNL1        0.1335
     23 H         142.6337  136.1608  155.9870 H       1  UNL1        0.1452
     24 H         143.4664  136.9610  154.7324 H       1  UNL1        0.1452
     25 C         138.3660  139.7347  169.1490 C.ar    1  UNL1        0.1385
     26 C         137.7500  138.8399  168.1146 C.ar    1  UNL1        0.0382
     27 C         138.2531  138.8696  166.7018 C.ar    1  UNL1        0.0175
     28 C         139.3721  139.7939  166.3234 C.ar    1  UNL1        0.0478
     29 C         139.9881  140.6887  167.3578 C.ar    1  UNL1       -0.0053
     30 C         141.1072  141.6131  166.9793 C.3     1  UNL1        0.0324
     31 C         139.4850  140.6591  168.7706 C.ar    1  UNL1        0.0339
     32 C         136.6151  138.9436  170.8979 C.3     1  UNL1        0.2525
     33 O         137.8629  139.7051  170.5619 O.3     1  UNL1       -0.4714
@<TRIPOS>BOND
     1    32    33    1
     2    33    25    1
     3    25    26   ar
     4    26    27   ar
     5    27    28   ar
     6    28     1    1
     7     1     2   am
     8     2     3    2
     9     2     4   am
    10     4     5    1
    11     5     6    1
    12     6     7    1
    13     7    12    1
    14    12    13   ar
    15    13    14   ar
    16    14    15    1
    17    14    16   ar
    18    16    17   ar
    19    17    18   ar
    20    18    19   ar
    21    19    20   ar
    22    20    21   ar
    23    21    22    1
    24     7     8    1
    25     8     9    1
    26     8    10    1
    27    28    29   ar
    28    29    30    1
    29    29    31   ar
    30    31    25   ar
    31    10     4    1
    32    18    12   ar
    33    21    17   ar
    34     1    11    1
    35    15    23    1
    36    15    24    1
