@<TRIPOS>MOLECULE
*****
 15 16 0 0 0
SMALL
GASTEIGER

@<TRIPOS>ATOM
      1 C         140.0878  140.9735  167.0995 C.3     1  UNL1        0.0344
      2 C         139.2284  141.1231  165.8792 C.ar    1  UNL1        0.0185
      3 C         138.4132  140.0402  165.2367 C.ar    1  UNL1        0.1768
      4 O         137.7143  140.6298  164.0476 O.2     1  UNL1       -0.4509
      5 C         138.0976  142.0770  163.9552 C.ar    1  UNL1        0.1451
      6 C         137.7154  143.1566  162.9865 C.ar    1  UNL1        0.0375
      7 C         138.2689  144.5411  163.1498 C.ar    1  UNL1        0.0031
      8 C         139.2047  144.8460  164.2817 C.ar    1  UNL1        0.0002
      9 C         139.5869  143.7665  165.2504 C.ar    1  UNL1        0.0028
     10 C         139.0333  142.3820  165.0871 C.ar    1  UNL1        0.0336
     11 C         138.3143  138.6175  165.7018 C.2     1  UNL1        0.2221
     12 O         137.3620  138.2525  166.8016 O.2     1  UNL1       -0.2870
     13 C         139.1677  137.5599  165.0669 C.3     1  UNL1        0.1773
     14 C         139.4606  137.6150  163.5968 C.1     1  UNL1        0.0816
     15 N         139.7535  137.6702  162.1267 N.1     1  UNL1       -0.1954
@<TRIPOS>BOND
     1     1     2    1
     2     2     3   ar
     3     3    11    1
     4    11    12    2
     5    11    13    1
     6    13    14    1
     7    14    15    3
     8     3     4   ar
     9     4     5   ar
    10     5     6   ar
    11     6     7   ar
    12     7     8   ar
    13     8     9   ar
    14     9    10   ar
    15    10     2   ar
    16    10     5   ar
@<TRIPOS>MOLECULE
*****
 15 16 0 0 0
SMALL
GASTEIGER

@<TRIPOS>ATOM
      1 C         139.5062  140.5291  169.5868 C.3     1  UNL1        0.0344
      2 C         140.4099  140.1535  168.4500 C.ar    1  UNL1        0.0185
      3 C         141.9062  140.2575  168.4418 C.ar    1  UNL1        0.1768
      4 O         142.3970  139.7762  167.1085 O.2     1  UNL1       -0.4509
      5 C         141.2039  139.3749  166.2927 C.ar    1  UNL1        0.1451
      6 C         141.0772  138.8272  164.9021 C.ar    1  UNL1        0.0375
      7 C         139.7223  138.5128  164.3405 C.ar    1  UNL1        0.0031
      8 C         138.4942  138.7460  165.1695 C.ar    1  UNL1        0.0002
      9 C         138.6209  139.2936  166.5602 C.ar    1  UNL1        0.0028
     10 C         139.9758  139.6081  167.1218 C.ar    1  UNL1        0.0336
     11 C         142.7617  140.7552  169.5689 C.2     1  UNL1        0.2221
     12 O         143.2995  139.7913  170.5846 O.2     1  UNL1       -0.2870
     13 C         143.0793  142.2169  169.6805 C.3     1  UNL1        0.1773
     14 C         141.9895  143.1997  169.9909 C.1     1  UNL1        0.0816
     15 N         140.8996  144.1825  170.3013 N.1     1  UNL1       -0.1954
@<TRIPOS>BOND
     1     1     2    1
     2     2     3   ar
     3     3    11    1
     4    11    12    2
     5    11    13    1
     6    13    14    1
     7    14    15    3
     8     3     4   ar
     9     4     5   ar
    10     5     6   ar
    11     6     7   ar
    12     7     8   ar
    13     8     9   ar
    14     9    10   ar
    15    10     2   ar
    16    10     5   ar
@<TRIPOS>MOLECULE
*****
 15 16 0 0 0
SMALL
GASTEIGER

@<TRIPOS>ATOM
      1 C         142.6791  139.4631  167.3933 C.3     1  UNL1        0.0344
      2 C         141.3201  139.5252  166.7615 C.ar    1  UNL1        0.0185
      3 C         140.1518  140.3233  167.2597 C.ar    1  UNL1        0.1768
      4 O         139.0005  140.0915  166.3267 O.2     1  UNL1       -0.4509
      5 C         139.4571  139.1501  165.2518 C.ar    1  UNL1        0.1451
      6 C         138.7528  138.5664  164.0631 C.ar    1  UNL1        0.0375
      7 C         139.4820  137.6328  163.1431 C.ar    1  UNL1        0.0031
      8 C         140.9157  137.2828  163.4119 C.ar    1  UNL1        0.0002
      9 C         141.6200  137.8665  164.6006 C.ar    1  UNL1        0.0028
     10 C         140.8908  138.8002  165.5205 C.ar    1  UNL1        0.0336
     11 C         140.1375  141.1994  168.4772 C.2     1  UNL1        0.2221
     12 O         139.3978  140.7626  169.7068 O.2     1  UNL1       -0.2870
     13 C         140.8628  142.5123  168.4651 C.3     1  UNL1        0.1773
     14 C         140.4396  143.6116  169.3937 C.1     1  UNL1        0.0816
     15 N         140.0163  144.7109  170.3224 N.1     1  UNL1       -0.1954
@<TRIPOS>BOND
     1     1     2    1
     2     2     3   ar
     3     3    11    1
     4    11    12    2
     5    11    13    1
     6    13    14    1
     7    14    15    3
     8     3     4   ar
     9     4     5   ar
    10     5     6   ar
    11     6     7   ar
    12     7     8   ar
    13     8     9   ar
    14     9    10   ar
    15    10     2   ar
    16    10     5   ar
@<TRIPOS>MOLECULE
*****
 15 16 0 0 0
SMALL
GASTEIGER

@<TRIPOS>ATOM
      1 C         138.6464  139.3583  165.8652 C.3     1  UNL1        0.0344
      2 C         139.1623  140.7596  166.0076 C.ar    1  UNL1        0.0185
      3 C         140.1190  141.2446  167.0561 C.ar    1  UNL1        0.1768
      4 O         140.3600  142.7066  166.8229 O.2     1  UNL1       -0.4509
      5 C         139.5523  143.1252  165.6302 C.ar    1  UNL1        0.1451
      6 C         139.3952  144.4465  164.9379 C.ar    1  UNL1        0.0375
      7 C         138.4979  144.5645  163.7417 C.ar    1  UNL1        0.0031
      8 C         137.7577  143.3611  163.2379 C.ar    1  UNL1        0.0002
      9 C         137.9147  142.0398  163.9301 C.ar    1  UNL1        0.0028
     10 C         138.8121  141.9218  165.1263 C.ar    1  UNL1        0.0336
     11 C         140.7277  140.4136  168.1464 C.2     1  UNL1        0.2221
     12 O         142.0490  139.7387  167.9261 O.2     1  UNL1       -0.2870
     13 C         140.0152  140.2575  169.4571 C.3     1  UNL1        0.1773
     14 C         140.3252  141.1851  170.5944 C.1     1  UNL1        0.0816
     15 N         140.6352  142.1127  171.7317 N.1     1  UNL1       -0.1954
@<TRIPOS>BOND
     1     1     2    1
     2     2     3   ar
     3     3    11    1
     4    11    12    2
     5    11    13    1
     6    13    14    1
     7    14    15    3
     8     3     4   ar
     9     4     5   ar
    10     5     6   ar
    11     6     7   ar
    12     7     8   ar
    13     8     9   ar
    14     9    10   ar
    15    10     2   ar
    16    10     5   ar
@<TRIPOS>MOLECULE
*****
 15 16 0 0 0
SMALL
GASTEIGER

@<TRIPOS>ATOM
      1 C         137.8191  138.9977  166.8931 C.3     1  UNL1        0.0344
      2 C         139.2859  139.1144  166.6014 C.ar    1  UNL1        0.0185
      3 C         140.3082  139.7795  167.4746 C.ar    1  UNL1        0.1768
      4 O         141.6419  139.6626  166.7982 O.2     1  UNL1       -0.4509
      5 C         141.4438  138.9253  165.5070 C.ar    1  UNL1        0.1451
      6 C         142.4013  138.5186  164.4263 C.ar    1  UNL1        0.0375
      7 C         141.9025  137.7732  163.2240 C.ar    1  UNL1        0.0031
      8 C         140.4464  137.4345  163.1024 C.ar    1  UNL1        0.0002
      9 C         139.4889  137.8411  164.1831 C.ar    1  UNL1        0.0028
     10 C         139.9877  138.5865  165.3854 C.ar    1  UNL1        0.0336
     11 C         140.0434  140.4446  168.7927 C.2     1  UNL1        0.2221
     12 O         139.4358  139.6621  169.9190 O.2     1  UNL1       -0.2870
     13 C         140.3862  141.8922  168.9846 C.3     1  UNL1        0.1773
     14 C         139.8105  142.6522  170.1426 C.1     1  UNL1        0.0816
     15 N         139.2348  143.4122  171.3006 N.1     1  UNL1       -0.1954
@<TRIPOS>BOND
     1     1     2    1
     2     2     3   ar
     3     3    11    1
     4    11    12    2
     5    11    13    1
     6    13    14    1
     7    14    15    3
     8     3     4   ar
     9     4     5   ar
    10     5     6   ar
    11     6     7   ar
    12     7     8   ar
    13     8     9   ar
    14     9    10   ar
    15    10     2   ar
    16    10     5   ar
@<TRIPOS>MOLECULE
*****
 15 16 0 0 0
SMALL
GASTEIGER

@<TRIPOS>ATOM
      1 C         143.8295  138.2645  166.2780 C.3     1  UNL1        0.0344
      2 C         142.4348  138.8165  166.2772 C.ar    1  UNL1        0.0185
      3 C         141.8777  139.8065  167.2568 C.ar    1  UNL1        0.1768
      4 O         140.4509  140.0771  166.8815 O.2     1  UNL1       -0.4509
      5 C         140.1261  139.2545  165.6701 C.ar    1  UNL1        0.1451
      6 C         138.8723  139.1142  164.8588 C.ar    1  UNL1        0.0375
      7 C         138.8446  138.1947  163.6740 C.ar    1  UNL1        0.0031
      8 C         140.0707  137.4156  163.3005 C.ar    1  UNL1        0.0002
      9 C         141.3245  137.5559  164.1117 C.ar    1  UNL1        0.0028
     10 C         141.3522  138.4753  165.2965 C.ar    1  UNL1        0.0336
     11 C         142.6176  140.4183  168.4092 C.2     1  UNL1        0.2221
     12 O         143.0539  139.5613  169.5604 O.2     1  UNL1       -0.2870
     13 C         142.9213  141.8872  168.4106 C.3     1  UNL1        0.1773
     14 C         142.7992  142.6772  169.6799 C.1     1  UNL1        0.0816
     15 N         142.6771  143.4671  170.9492 N.1     1  UNL1       -0.1954
@<TRIPOS>BOND
     1     1     2    1
     2     2     3   ar
     3     3    11    1
     4    11    12    2
     5    11    13    1
     6    13    14    1
     7    14    15    3
     8     3     4   ar
     9     4     5   ar
    10     5     6   ar
    11     6     7   ar
    12     7     8   ar
    13     8     9   ar
    14     9    10   ar
    15    10     2   ar
    16    10     5   ar
@<TRIPOS>MOLECULE
*****
 15 16 0 0 0
SMALL
GASTEIGER

@<TRIPOS>ATOM
      1 C         142.2022  138.0706  165.3798 C.3     1  UNL1        0.0344
      2 C         142.3457  139.5494  165.5867 C.ar    1  UNL1        0.0185
      3 C         141.4176  140.4232  166.3772 C.ar    1  UNL1        0.1768
      4 O         141.9409  141.8277  166.3185 O.2     1  UNL1       -0.4509
      5 C         143.1924  141.8219  165.4916 C.ar    1  UNL1        0.1451
      6 C         144.1365  142.9169  165.0921 C.ar    1  UNL1        0.0375
      7 C         145.3308  142.6038  164.2403 C.ar    1  UNL1        0.0031
      8 C         145.5810  141.1956  163.7880 C.ar    1  UNL1        0.0002
      9 C         144.6369  140.1006  164.1875 C.ar    1  UNL1        0.0028
     10 C         143.4426  140.4138  165.0393 C.ar    1  UNL1        0.0336
     11 C         140.1830  139.9718  167.0997 C.2     1  UNL1        0.2221
     12 O         140.1907  139.8515  168.5948 O.2     1  UNL1       -0.2870
     13 C         138.9407  139.6407  166.3271 C.3     1  UNL1        0.1773
     14 C         137.9292  138.6946  166.9029 C.1     1  UNL1        0.0816
     15 N         136.9176  137.7485  167.4787 N.1     1  UNL1       -0.1954
@<TRIPOS>BOND
     1     1     2    1
     2     2     3   ar
     3     3    11    1
     4    11    12    2
     5    11    13    1
     6    13    14    1
     7    14    15    3
     8     3     4   ar
     9     4     5   ar
    10     5     6   ar
    11     6     7   ar
    12     7     8   ar
    13     8     9   ar
    14     9    10   ar
    15    10     2   ar
    16    10     5   ar
@<TRIPOS>MOLECULE
*****
 15 16 0 0 0
SMALL
GASTEIGER

@<TRIPOS>ATOM
      1 C         137.7047  138.2842  166.9170 C.3     1  UNL1        0.0344
      2 C         138.6297  139.4196  166.5923 C.ar    1  UNL1        0.0185
      3 C         139.0154  139.8768  165.2167 C.ar    1  UNL1        0.1768
      4 O         139.9554  141.0369  165.3605 O.2     1  UNL1       -0.4509
      5 C         140.1506  141.2966  166.8249 C.ar    1  UNL1        0.1451
      6 C         140.9686  142.3142  167.5634 C.ar    1  UNL1        0.0375
      7 C         140.9671  142.3322  169.0633 C.ar    1  UNL1        0.0031
      8 C         140.1478  141.3326  169.8246 C.ar    1  UNL1        0.0002
      9 C         139.3298  140.3151  169.0860 C.ar    1  UNL1        0.0028
     10 C         139.3312  140.2971  167.5862 C.ar    1  UNL1        0.0336
     11 C         138.5440  139.2789  163.9243 C.2     1  UNL1        0.2221
     12 O         137.6666  140.0759  163.0052 O.2     1  UNL1       -0.2870
     13 C         138.9499  137.8840  163.5511 C.3     1  UNL1        0.1773
     14 C         140.1984  137.6546  162.7519 C.1     1  UNL1        0.0816
     15 N         141.4469  137.4253  161.9528 N.1     1  UNL1       -0.1954
@<TRIPOS>BOND
     1     1     2    1
     2     2     3   ar
     3     3    11    1
     4    11    12    2
     5    11    13    1
     6    13    14    1
     7    14    15    3
     8     3     4   ar
     9     4     5   ar
    10     5     6   ar
    11     6     7   ar
    12     7     8   ar
    13     8     9   ar
    14     9    10   ar
    15    10     2   ar
    16    10     5   ar
@<TRIPOS>MOLECULE
*****
 15 16 0 0 0
SMALL
GASTEIGER

@<TRIPOS>ATOM
      1 C         138.5630  142.9711  164.9700 C.3     1  UNL1        0.0344
      2 C         139.9869  142.6570  165.3220 C.ar    1  UNL1        0.0185
      3 C         140.4495  141.5435  166.2142 C.ar    1  UNL1        0.1768
      4 O         141.9467  141.5996  166.2871 O.2     1  UNL1       -0.4509
      5 C         142.4094  142.7478  165.4400 C.ar    1  UNL1        0.1451
      6 C         143.7771  143.2827  165.1348 C.ar    1  UNL1        0.0375
      7 C         143.9335  144.4711  164.2331 C.ar    1  UNL1        0.0031
      8 C         142.7223  145.1246  163.6366 C.ar    1  UNL1        0.0002
      9 C         141.3546  144.5897  163.9418 C.ar    1  UNL1        0.0028
     10 C         141.1981  143.4013  164.8435 C.ar    1  UNL1        0.0336
     11 C         139.5695  140.5485  166.9111 C.2     1  UNL1        0.2221
     12 O         139.5052  140.5242  168.4095 O.2     1  UNL1       -0.2870
     13 C         138.7538  139.5779  166.1096 C.3     1  UNL1        0.1773
     14 C         137.8298  138.6219  166.8040 C.1     1  UNL1        0.0816
     15 N         136.9057  137.6660  167.4985 N.1     1  UNL1       -0.1954
@<TRIPOS>BOND
     1     1     2    1
     2     2     3   ar
     3     3    11    1
     4    11    12    2
     5    11    13    1
     6    13    14    1
     7    14    15    3
     8     3     4   ar
     9     4     5   ar
    10     5     6   ar
    11     6     7   ar
    12     7     8   ar
    13     8     9   ar
    14     9    10   ar
    15    10     2   ar
    16    10     5   ar
