@<TRIPOS>MOLECULE
*****
 26 28 0 0 0
SMALL
GASTEIGER

@<TRIPOS>ATOM
      1 C         138.8686  137.6554  163.2867 C.3     1  UNL1        0.0117
      2 C         138.7894  139.0719  163.7739 C.3     1  UNL1        0.1022
      3 C         139.0509  139.3842  165.2176 C.ar    1  UNL1        0.2379
      4 N         140.0767  140.3459  165.7398 N.ar    1  UNL1       -0.1907
      5 C         139.9923  140.3457  167.2374 C.ar    1  UNL1        0.2041
      6 N         138.9143  139.3838  167.6408 N.ar    1  UNL1       -0.0560
      7 O         138.3324  138.7895  166.3925 O.2     1  UNL1       -0.3370
      8 C         140.8375  141.1638  168.1683 C.ar    1  UNL1        0.0497
      9 C         140.3441  142.4936  168.6561 C.ar    1  UNL1        0.0049
     10 C         141.1892  143.3116  169.5870 C.ar    1  UNL1        0.0115
     11 C         142.5278  142.7998  170.0300 C.ar    1  UNL1        0.0585
     12 CL        143.3730  143.6179  170.9608 Cl      1  UNL1       -0.0822
     13 C         143.0212  141.4700  169.5421 C.ar    1  UNL1        0.0229
     14 C         142.1760  140.6520  168.6113 C.ar    1  UNL1        0.0615
     15 CL        142.6694  139.3220  168.1234 Cl      1  UNL1       -0.0821
     16 C         138.4486  140.1760  162.8175 C.3     1  UNL1        0.1374
     17 N         137.2050  140.0884  161.9832 N.3     1  UNL1       -0.3146
     18 H         136.7152  139.2187  162.1933 H       1  UNL1        0.1192
     19 H         137.4566  140.1066  160.9948 H       1  UNL1        0.1192
     20 C         139.3512  141.3677  162.6953 C.2     1  UNL1        0.2402
     21 O         140.5767  141.2949  161.8332 O.2     1  UNL1       -0.2734
     22 N         139.0286  142.6320  163.4350 N.am    1  UNL1       -0.2785
     23 C         137.8449  142.8526  164.3296 C.3     1  UNL1        0.0935
     24 C         137.9177  144.2546  164.8575 C.3     1  UNL1        0.0233
     25 C         139.1463  144.9007  164.2893 C.3     1  UNL1        0.0233
     26 C         139.8329  143.8979  163.4101 C.3     1  UNL1        0.0935
@<TRIPOS>BOND
     1     2     1    1
     2     2     3    1
     3     3     4   ar
     4     4     5   ar
     5     5     8    1
     6     8     9   ar
     7     9    10   ar
     8    10    11   ar
     9    11    12    1
    10    11    13   ar
    11    13    14   ar
    12    14    15    1
    13     5     6   ar
    14     6     7   ar
    15     2    16    1
    16    16    17    1
    17    16    20    1
    18    20    21    2
    19    20    22   am
    20    22    23    1
    21    23    24    1
    22    24    25    1
    23    25    26    1
    24     7     3   ar
    25    26    22    1
    26    14     8   ar
    27    17    18    1
    28    17    19    1
@<TRIPOS>MOLECULE
*****
 26 28 0 0 0
SMALL
GASTEIGER

@<TRIPOS>ATOM
      1 C         142.3099  142.2885  159.5996 C.3     1  UNL1        0.0117
      2 C         142.0248  143.0148  160.8807 C.3     1  UNL1        0.1022
      3 C         142.7362  142.6201  162.1410 C.ar    1  UNL1        0.2379
      4 N         142.1217  141.9252  163.3197 N.ar    1  UNL1       -0.1907
      5 C         143.1927  141.7266  164.3509 C.ar    1  UNL1        0.2041
      6 N         144.4692  142.2988  163.8095 N.ar    1  UNL1       -0.0560
      7 O         144.1872  142.8510  162.4437 O.2     1  UNL1       -0.3370
      8 C         143.0179  141.0710  165.6887 C.ar    1  UNL1        0.0497
      9 C         142.7090  141.9037  166.8974 C.ar    1  UNL1        0.0049
     10 C         142.5342  141.2481  168.2351 C.ar    1  UNL1        0.0115
     11 C         142.6685  139.7597  168.3642 C.ar    1  UNL1        0.0585
     12 CL        142.4937  139.1040  169.7020 Cl      1  UNL1       -0.0822
     13 C         142.9774  138.9269  167.1554 C.ar    1  UNL1        0.0229
     14 C         143.1522  139.5826  165.8177 C.ar    1  UNL1        0.0615
     15 CL        143.4612  138.7498  164.6089 Cl      1  UNL1       -0.0821
     16 C         141.0284  144.1357  160.9016 C.3     1  UNL1        0.1374
     17 N         141.4564  145.5266  160.5373 N.3     1  UNL1       -0.3146
     18 H         142.4494  145.5267  160.3044 H       1  UNL1        0.1192
     19 H         141.2923  146.1507  161.3272 H       1  UNL1        0.1192
     20 C         139.6040  143.8661  161.2867 C.2     1  UNL1        0.2402
     21 O         138.6393  143.3353  160.2679 O.2     1  UNL1       -0.2734
     22 N         139.1443  144.1271  162.6904 N.am    1  UNL1       -0.2785
     23 C         139.9899  144.6544  163.8115 C.3     1  UNL1        0.0935
     24 C         139.1264  144.7599  165.0334 C.3     1  UNL1        0.0233
     25 C         137.7471  144.2978  164.6677 C.3     1  UNL1        0.0233
     26 C         137.7581  143.9067  163.2196 C.3     1  UNL1        0.0935
@<TRIPOS>BOND
     1     2     1    1
     2     2     3    1
     3     3     4   ar
     4     4     5   ar
     5     5     8    1
     6     8     9   ar
     7     9    10   ar
     8    10    11   ar
     9    11    12    1
    10    11    13   ar
    11    13    14   ar
    12    14    15    1
    13     5     6   ar
    14     6     7   ar
    15     2    16    1
    16    16    17    1
    17    16    20    1
    18    20    21    2
    19    20    22   am
    20    22    23    1
    21    23    24    1
    22    24    25    1
    23    25    26    1
    24     7     3   ar
    25    26    22    1
    26    14     8   ar
    27    17    18    1
    28    17    19    1
@<TRIPOS>MOLECULE
*****
 26 28 0 0 0
SMALL
GASTEIGER

@<TRIPOS>ATOM
      1 C         138.8080  139.3402  160.8451 C.3     1  UNL1        0.0117
      2 C         138.6439  140.0669  162.1470 C.3     1  UNL1        0.1022
      3 C         139.2364  139.4994  163.4027 C.ar    1  UNL1        0.2379
      4 N         139.5779  140.2704  164.6432 N.ar    1  UNL1       -0.1907
      5 C         140.1441  139.3087  165.6455 C.ar    1  UNL1        0.2041
      6 N         140.1524  137.9433  165.0245 N.ar    1  UNL1       -0.0560
      7 O         139.5915  138.0611  163.6383 O.2     1  UNL1       -0.3370
      8 C         140.6186  139.6520  167.0265 C.ar    1  UNL1        0.0497
      9 C         139.6236  139.9380  168.1120 C.ar    1  UNL1        0.0049
     10 C         140.0981  140.2813  169.4928 C.ar    1  UNL1        0.0115
     11 C         141.5676  140.3387  169.7883 C.ar    1  UNL1        0.0585
     12 CL        142.0421  140.6821  171.1693 Cl      1  UNL1       -0.0822
     13 C         142.5626  140.0528  168.7029 C.ar    1  UNL1        0.0229
     14 C         142.0881  139.7094  167.3220 C.ar    1  UNL1        0.0615
     15 CL        143.0831  139.4235  166.2365 Cl      1  UNL1       -0.0821
     16 C         137.8872  141.3613  162.1932 C.3     1  UNL1        0.1374
     17 N         136.6405  141.4721  163.0202 N.3     1  UNL1       -0.3146
     18 H         136.4568  140.5801  163.4795 H       1  UNL1        0.1192
     19 H         135.8533  141.7129  162.4180 H       1  UNL1        0.1192
     20 C         138.3769  142.5447  161.4125 C.2     1  UNL1        0.2402
     21 O         138.0260  142.6826  159.9606 O.2     1  UNL1       -0.2734
     22 N         139.2175  143.5902  162.0835 N.am    1  UNL1       -0.2785
     23 C         139.6468  143.5875  163.5207 C.3     1  UNL1        0.0935
     24 C         140.4710  144.8176  163.7606 C.3     1  UNL1        0.0233
     25 C         140.5512  145.5805  162.4716 C.3     1  UNL1        0.0233
     26 C         139.7765  144.8219  161.4351 C.3     1  UNL1        0.0935
@<TRIPOS>BOND
     1     2     1    1
     2     2     3    1
     3     3     4   ar
     4     4     5   ar
     5     5     8    1
     6     8     9   ar
     7     9    10   ar
     8    10    11   ar
     9    11    12    1
    10    11    13   ar
    11    13    14   ar
    12    14    15    1
    13     5     6   ar
    14     6     7   ar
    15     2    16    1
    16    16    17    1
    17    16    20    1
    18    20    21    2
    19    20    22   am
    20    22    23    1
    21    23    24    1
    22    24    25    1
    23    25    26    1
    24     7     3   ar
    25    26    22    1
    26    14     8   ar
    27    17    18    1
    28    17    19    1
@<TRIPOS>MOLECULE
*****
 26 28 0 0 0
SMALL
GASTEIGER

@<TRIPOS>ATOM
      1 C         143.3789  142.9012  160.4251 C.3     1  UNL1        0.0117
      2 C         142.2204  143.1008  161.3567 C.3     1  UNL1        0.1022
      3 C         142.0590  142.2119  162.5541 C.ar    1  UNL1        0.2379
      4 N         140.8286  141.4334  162.9148 N.ar    1  UNL1       -0.1907
      5 C         141.1088  140.6857  164.1846 C.ar    1  UNL1        0.2041
      6 N         142.5124  141.0021  164.6087 N.ar    1  UNL1       -0.0560
      7 O         143.0997  141.9453  163.6010 O.2     1  UNL1       -0.3370
      8 C         140.1532  139.7806  164.9041 C.ar    1  UNL1        0.0497
      9 C         139.8304  138.4292  164.3389 C.ar    1  UNL1        0.0049
     10 C         138.8748  137.5241  165.0584 C.ar    1  UNL1        0.0115
     11 C         138.2421  137.9704  166.3431 C.ar    1  UNL1        0.0585
     12 CL        137.2865  137.0652  167.0626 Cl      1  UNL1       -0.0822
     13 C         138.5649  139.3218  166.9083 C.ar    1  UNL1        0.0229
     14 C         139.5205  140.2269  166.1888 C.ar    1  UNL1        0.0615
     15 CL        139.8433  141.5783  166.7540 Cl      1  UNL1       -0.0821
     16 C         141.2232  144.1895  161.0910 C.3     1  UNL1        0.1374
     17 N         141.6835  145.5148  160.5600 N.3     1  UNL1       -0.3146
     18 H         142.6963  145.4998  160.4399 H       1  UNL1        0.1192
     19 H         141.4301  146.2514  161.2184 H       1  UNL1        0.1192
     20 C         139.7660  143.9529  161.3561 C.2     1  UNL1        0.2402
     21 O         138.8753  143.4535  160.2572 O.2     1  UNL1       -0.2734
     22 N         139.1994  144.2157  162.7198 N.am    1  UNL1       -0.2785
     23 C         139.9631  144.7139  163.9109 C.3     1  UNL1        0.0935
     24 C         139.0053  144.8325  165.0591 C.3     1  UNL1        0.0233
     25 C         137.6497  144.4076  164.5778 C.3     1  UNL1        0.0233
     26 C         137.7696  144.0264  163.1320 C.3     1  UNL1        0.0935
@<TRIPOS>BOND
     1     2     1    1
     2     2     3    1
     3     3     4   ar
     4     4     5   ar
     5     5     8    1
     6     8     9   ar
     7     9    10   ar
     8    10    11   ar
     9    11    12    1
    10    11    13   ar
    11    13    14   ar
    12    14    15    1
    13     5     6   ar
    14     6     7   ar
    15     2    16    1
    16    16    17    1
    17    16    20    1
    18    20    21    2
    19    20    22   am
    20    22    23    1
    21    23    24    1
    22    24    25    1
    23    25    26    1
    24     7     3   ar
    25    26    22    1
    26    14     8   ar
    27    17    18    1
    28    17    19    1
@<TRIPOS>MOLECULE
*****
 26 28 0 0 0
SMALL
GASTEIGER

@<TRIPOS>ATOM
      1 C         137.3354  142.0973  163.1841 C.3     1  UNL1        0.0117
      2 C         138.0181  140.8197  163.5734 C.3     1  UNL1        0.1022
      3 C         138.5961  140.6672  164.9492 C.ar    1  UNL1        0.2379
      4 N         139.5502  141.6142  165.6146 N.ar    1  UNL1       -0.1907
      5 C         139.8652  141.0732  166.9777 C.ar    1  UNL1        0.2041
      6 N         139.1058  139.7918  167.1547 N.ar    1  UNL1       -0.0560
      7 O         138.3214  139.5408  165.9010 O.2     1  UNL1       -0.3370
      8 C         140.7792  141.7030  167.9867 C.ar    1  UNL1        0.0497
      9 C         140.2842  142.8259  168.8493 C.ar    1  UNL1        0.0049
     10 C         141.1982  143.4556  169.8582 C.ar    1  UNL1        0.0115
     11 C         142.6072  142.9625  170.0046 C.ar    1  UNL1        0.0585
     12 CL        143.5212  143.5923  171.0136 Cl      1  UNL1       -0.0822
     13 C         143.1023  141.8397  169.1420 C.ar    1  UNL1        0.0229
     14 C         142.1883  141.2099  168.1331 C.ar    1  UNL1        0.0615
     15 CL        142.6833  140.0870  167.2704 Cl      1  UNL1       -0.0821
     16 C         138.1227  139.6945  162.5870 C.3     1  UNL1        0.1374
     17 N         137.2456  139.6800  161.3701 N.3     1  UNL1       -0.3146
     18 H         136.6448  140.5043  161.3742 H       1  UNL1        0.1192
     19 H         136.6688  138.8388  161.3767 H       1  UNL1        0.1192
     20 C         139.1042  138.5840  162.8173 C.2     1  UNL1        0.2402
     21 O         138.6393  137.2802  163.3955 O.2     1  UNL1       -0.2734
     22 N         140.5505  138.7770  162.4694 N.am    1  UNL1       -0.2785
     23 C         141.1592  140.0182  161.8873 C.3     1  UNL1        0.0935
     24 C         142.6269  139.7710  161.7008 C.3     1  UNL1        0.0233
     25 C         142.9252  138.3771  162.1675 C.3     1  UNL1        0.0233
     26 C         141.6419  137.7627  162.6426 C.3     1  UNL1        0.0935
@<TRIPOS>BOND
     1     2     1    1
     2     2     3    1
     3     3     4   ar
     4     4     5   ar
     5     5     8    1
     6     8     9   ar
     7     9    10   ar
     8    10    11   ar
     9    11    12    1
    10    11    13   ar
    11    13    14   ar
    12    14    15    1
    13     5     6   ar
    14     6     7   ar
    15     2    16    1
    16    16    17    1
    17    16    20    1
    18    20    21    2
    19    20    22   am
    20    22    23    1
    21    23    24    1
    22    24    25    1
    23    25    26    1
    24     7     3   ar
    25    26    22    1
    26    14     8   ar
    27    17    18    1
    28    17    19    1
@<TRIPOS>MOLECULE
*****
 26 28 0 0 0
SMALL
GASTEIGER

@<TRIPOS>ATOM
      1 C         141.9002  137.9823  162.3048 C.3     1  UNL1        0.0117
      2 C         142.8839  138.8558  163.0254 C.3     1  UNL1        0.1022
      3 C         142.7776  139.0383  164.5105 C.ar    1  UNL1        0.2379
      4 N         141.9195  140.0464  165.2157 N.ar    1  UNL1       -0.1907
      5 C         142.1223  139.8759  166.6921 C.ar    1  UNL1        0.2041
      6 N         143.1059  138.7624  166.8993 N.ar    1  UNL1       -0.0560
      7 O         143.5109  138.2448  165.5510 O.2     1  UNL1       -0.3370
      8 C         141.4582  140.6780  167.7718 C.ar    1  UNL1        0.0497
      9 C         140.2370  140.1437  168.4596 C.ar    1  UNL1        0.0049
     10 C         139.5730  140.9458  169.5392 C.ar    1  UNL1        0.0115
     11 C         140.1301  142.2822  169.9311 C.ar    1  UNL1        0.0585
     12 CL        139.4660  143.0843  171.0107 Cl      1  UNL1       -0.0822
     13 C         141.3513  142.8165  169.2432 C.ar    1  UNL1        0.0229
     14 C         142.0154  142.0144  168.1636 C.ar    1  UNL1        0.0615
     15 CL        143.2366  142.5487  167.4758 Cl      1  UNL1       -0.0821
     16 C         143.9739  139.5468  162.2609 C.3     1  UNL1        0.1374
     17 N         144.5356  138.9167  161.0208 N.3     1  UNL1       -0.3146
     18 H         144.0639  138.0293  160.8468 H       1  UNL1        0.1192
     19 H         145.5345  138.7521  161.1456 H       1  UNL1        0.1192
     20 C         144.5022  140.8676  162.7363 C.2     1  UNL1        0.2402
     21 O         145.8107  140.9329  163.4669 O.2     1  UNL1       -0.2734
     22 N         143.7222  142.1232  162.4813 N.am    1  UNL1       -0.2785
     23 C         142.4057  142.2138  161.7680 C.3     1  UNL1        0.0935
     24 C         141.9917  143.6552  161.7407 C.3     1  UNL1        0.0233
     25 C         143.0521  144.4555  162.4369 C.3     1  UNL1        0.0233
     26 C         144.1217  143.5087  162.8947 C.3     1  UNL1        0.0935
@<TRIPOS>BOND
     1     2     1    1
     2     2     3    1
     3     3     4   ar
     4     4     5   ar
     5     5     8    1
     6     8     9   ar
     7     9    10   ar
     8    10    11   ar
     9    11    12    1
    10    11    13   ar
    11    13    14   ar
    12    14    15    1
    13     5     6   ar
    14     6     7   ar
    15     2    16    1
    16    16    17    1
    17    16    20    1
    18    20    21    2
    19    20    22   am
    20    22    23    1
    21    23    24    1
    22    24    25    1
    23    25    26    1
    24     7     3   ar
    25    26    22    1
    26    14     8   ar
    27    17    18    1
    28    17    19    1
@<TRIPOS>MOLECULE
*****
 26 28 0 0 0
SMALL
GASTEIGER

@<TRIPOS>ATOM
      1 C         144.2926  143.6790  162.1257 C.3     1  UNL1        0.0117
      2 C         143.0708  143.9236  162.9608 C.3     1  UNL1        0.1022
      3 C         142.9710  143.3317  164.3354 C.ar    1  UNL1        0.2379
      4 N         141.7114  142.8729  165.0085 N.ar    1  UNL1       -0.1907
      5 C         142.0752  142.3523  166.3674 C.ar    1  UNL1        0.2041
      6 N         143.5596  142.4893  166.5342 N.ar    1  UNL1       -0.0560
      7 O         144.1133  143.0946  165.2784 O.2     1  UNL1       -0.3370
      8 C         141.1220  141.7928  167.3815 C.ar    1  UNL1        0.0497
      9 C         140.8306  142.5573  168.6387 C.ar    1  UNL1        0.0049
     10 C         139.8774  141.9978  169.6528 C.ar    1  UNL1        0.0115
     11 C         139.2156  140.6738  169.4096 C.ar    1  UNL1        0.0585
     12 CL        138.2623  140.1143  170.4238 Cl      1  UNL1       -0.0822
     13 C         139.5070  139.9093  168.1524 C.ar    1  UNL1        0.0229
     14 C         140.4602  140.4688  167.1384 C.ar    1  UNL1        0.0615
     15 CL        140.7516  139.7043  165.8811 Cl      1  UNL1       -0.0821
     16 C         141.9487  144.7602  162.4212 C.3     1  UNL1        0.1374
     17 N         141.3670  145.8629  163.2555 N.3     1  UNL1       -0.3146
     18 H         141.8505  145.9016  164.1528 H       1  UNL1        0.1192
     19 H         140.3749  145.6842  163.4112 H       1  UNL1        0.1192
     20 C         141.4084  144.4943  161.0475 C.2     1  UNL1        0.2402
     21 O         142.0694  145.1095  159.8496 O.2     1  UNL1       -0.2734
     22 N         140.2072  143.6134  160.8714 N.am    1  UNL1       -0.2785
     23 C         139.4447  142.9325  161.9692 C.3     1  UNL1        0.0935
     24 C         138.3238  142.1571  161.3430 C.3     1  UNL1        0.0233
     25 C         138.3935  142.3587  159.8583 C.3     1  UNL1        0.0233
     26 C         139.5575  143.2588  159.5668 C.3     1  UNL1        0.0935
@<TRIPOS>BOND
     1     2     1    1
     2     2     3    1
     3     3     4   ar
     4     4     5   ar
     5     5     8    1
     6     8     9   ar
     7     9    10   ar
     8    10    11   ar
     9    11    12    1
    10    11    13   ar
    11    13    14   ar
    12    14    15    1
    13     5     6   ar
    14     6     7   ar
    15     2    16    1
    16    16    17    1
    17    16    20    1
    18    20    21    2
    19    20    22   am
    20    22    23    1
    21    23    24    1
    22    24    25    1
    23    25    26    1
    24     7     3   ar
    25    26    22    1
    26    14     8   ar
    27    17    18    1
    28    17    19    1
@<TRIPOS>MOLECULE
*****
 26 28 0 0 0
SMALL
GASTEIGER

@<TRIPOS>ATOM
      1 C         139.2378  138.5788  160.4885 C.3     1  UNL1        0.0117
      2 C         140.1445  138.9329  161.6297 C.3     1  UNL1        0.1022
      3 C         139.5848  139.5907  162.8561 C.ar    1  UNL1        0.2379
      4 N         140.2822  139.7329  164.1765 N.ar    1  UNL1       -0.1907
      5 C         139.3579  140.4518  165.1139 C.ar    1  UNL1        0.2041
      6 N         138.0891  140.7538  164.3729 N.ar    1  UNL1       -0.0560
      7 O         138.2293  140.2216  162.9775 O.2     1  UNL1       -0.3370
      8 C         139.6508  140.8064  166.5417 C.ar    1  UNL1        0.0497
      9 C         140.5251  141.9834  166.8580 C.ar    1  UNL1        0.0049
     10 C         140.8179  142.3380  168.2857 C.ar    1  UNL1        0.0115
     11 C         140.2365  141.5155  169.3972 C.ar    1  UNL1        0.0585
     12 CL        140.5294  141.8701  170.8250 Cl      1  UNL1       -0.0822
     13 C         139.3621  140.3384  169.0809 C.ar    1  UNL1        0.0229
     14 C         139.0693  139.9839  167.6532 C.ar    1  UNL1        0.0615
     15 CL        138.1949  138.8068  167.3369 Cl      1  UNL1       -0.0821
     16 C         141.6110  138.6293  161.5445 C.3     1  UNL1        0.1374
     17 N         142.0937  137.2160  161.6857 N.3     1  UNL1       -0.3146
     18 H         141.2962  136.5974  161.8331 H       1  UNL1        0.1192
     19 H         142.7264  137.1509  162.4831 H       1  UNL1        0.1192
     20 C         142.5947  139.7387  161.3181 C.2     1  UNL1        0.2402
     21 O         142.5401  140.5429  160.0530 O.2     1  UNL1       -0.2734
     22 N         143.6331  140.0440  162.3566 N.am    1  UNL1       -0.2785
     23 C         143.8095  139.3297  163.6637 C.3     1  UNL1        0.0935
     24 C         144.9628  139.9614  164.3853 C.3     1  UNL1        0.0233
     25 C         145.4992  141.0662  163.5242 C.3     1  UNL1        0.0233
     26 C         144.6775  141.1173  162.2704 C.3     1  UNL1        0.0935
@<TRIPOS>BOND
     1     2     1    1
     2     2     3    1
     3     3     4   ar
     4     4     5   ar
     5     5     8    1
     6     8     9   ar
     7     9    10   ar
     8    10    11   ar
     9    11    12    1
    10    11    13   ar
    11    13    14   ar
    12    14    15    1
    13     5     6   ar
    14     6     7   ar
    15     2    16    1
    16    16    17    1
    17    16    20    1
    18    20    21    2
    19    20    22   am
    20    22    23    1
    21    23    24    1
    22    24    25    1
    23    25    26    1
    24     7     3   ar
    25    26    22    1
    26    14     8   ar
    27    17    18    1
    28    17    19    1
@<TRIPOS>MOLECULE
*****
 26 28 0 0 0
SMALL
GASTEIGER

@<TRIPOS>ATOM
      1 C         140.2485  143.2152  157.9890 C.3     1  UNL1        0.0117
      2 C         140.2932  143.6210  159.4323 C.3     1  UNL1        0.1022
      3 C         139.4168  142.9285  160.4336 C.ar    1  UNL1        0.2379
      4 N         139.8193  141.7832  161.3147 N.ar    1  UNL1       -0.1907
      5 C         138.6353  141.4066  162.1551 C.ar    1  UNL1        0.2041
      6 N         137.5011  142.3192  161.7935 N.ar    1  UNL1       -0.0560
      7 O         137.9840  143.2598  160.7295 O.2     1  UNL1       -0.3370
      8 C         138.5930  140.3100  163.1778 C.ar    1  UNL1        0.0497
      9 C         138.3202  140.6361  164.6162 C.ar    1  UNL1        0.0049
     10 C         138.2779  139.5395  165.6388 C.ar    1  UNL1        0.0115
     11 C         138.5083  138.1168  165.2228 C.ar    1  UNL1        0.0585
     12 CL        138.4659  137.0202  166.2455 Cl      1  UNL1       -0.0822
     13 C         138.7810  137.7908  163.7844 C.ar    1  UNL1        0.0229
     14 C         138.8234  138.8874  162.7618 C.ar    1  UNL1        0.0615
     15 CL        139.0961  138.5614  161.3233 Cl      1  UNL1       -0.0821
     16 C         141.2143  144.7192  159.8744 C.3     1  UNL1        0.1374
     17 N         142.1434  145.3616  158.8874 N.3     1  UNL1       -0.3146
     18 H         142.0160  144.9320  157.9711 H       1  UNL1        0.1192
     19 H         143.1077  145.2308  159.1932 H       1  UNL1        0.1192
     20 C         141.2063  145.1751  161.3034 C.2     1  UNL1        0.2402
     21 O         140.1493  146.1261  161.7813 O.2     1  UNL1       -0.2734
     22 N         142.2553  144.6800  162.2545 N.am    1  UNL1       -0.2785
     23 C         143.3693  143.7319  161.9229 C.3     1  UNL1        0.0935
     24 C         144.1769  143.5121  163.1676 C.3     1  UNL1        0.0233
     25 C         143.5620  144.3244  164.2685 C.3     1  UNL1        0.0233
     26 C         142.3744  145.0462  163.7042 C.3     1  UNL1        0.0935
@<TRIPOS>BOND
     1     2     1    1
     2     2     3    1
     3     3     4   ar
     4     4     5   ar
     5     5     8    1
     6     8     9   ar
     7     9    10   ar
     8    10    11   ar
     9    11    12    1
    10    11    13   ar
    11    13    14   ar
    12    14    15    1
    13     5     6   ar
    14     6     7   ar
    15     2    16    1
    16    16    17    1
    17    16    20    1
    18    20    21    2
    19    20    22   am
    20    22    23    1
    21    23    24    1
    22    24    25    1
    23    25    26    1
    24     7     3   ar
    25    26    22    1
    26    14     8   ar
    27    17    18    1
    28    17    19    1
