@<TRIPOS>MOLECULE
*****
 24 26 0 0 0
SMALL
GASTEIGER

@<TRIPOS>ATOM
      1 C         141.6647  141.0527  166.9597 C.3     1  UNL1        0.0847
      2 C         142.8257  141.2559  166.0320 C.ar    1  UNL1       -0.0073
      3 C         143.4002  140.0902  165.2829 C.ar    1  UNL1       -0.0007
      4 C         144.5613  140.2934  164.3552 C.ar    1  UNL1        0.0294
      5 C         145.1479  141.6624  164.1766 C.ar    1  UNL1        0.1401
      6 F         146.3089  141.8655  163.2489 F       1  UNL1       -0.2042
      7 C         144.5734  142.8281  164.9257 C.ar    1  UNL1        0.0294
      8 C         143.4124  142.6249  165.8534 C.ar    1  UNL1       -0.0007
      9 N         141.8703  141.1182  168.4442 N.3     1  UNL1       -0.2676
     10 C         141.3300  142.2789  169.2257 C.3     1  UNL1        0.0896
     11 C         141.5357  142.3444  170.7101 C.3     1  UNL1        0.0862
     12 N         142.2816  141.2491  171.4129 N.3     1  UNL1       -0.2951
     13 C         142.8219  140.0884  170.6314 C.3     1  UNL1        0.0862
     14 C         142.6163  140.0229  169.1470 C.3     1  UNL1        0.0896
     15 H         141.6478  140.8634  172.1128 H       1  UNL1        0.1233
     16 C         140.2980  140.7841  166.4031 C.3     1  UNL1        0.0499
     17 C         138.4015  141.5565  164.8041 C.ar    1  UNL1        0.1347
     18 C         137.6337  142.6585  164.1364 C.ar    1  UNL1        0.0366
     19 C         137.9945  144.0904  164.3999 C.ar    1  UNL1        0.0031
     20 C         139.1232  144.4202  165.3312 C.ar    1  UNL1       -0.0001
     21 C         139.8910  143.3181  165.9989 C.ar    1  UNL1       -0.0012
     22 C         139.5301  141.8862  165.7354 C.ar    1  UNL1        0.0135
     23 C         138.4079  139.4869  163.2334 C.3     1  UNL1        0.2525
     24 O         138.0406  140.1245  164.5405 O.3     1  UNL1       -0.4717
@<TRIPOS>BOND
     1    23    24    1
     2    24    17    1
     3    17    18   ar
     4    18    19   ar
     5    19    20   ar
     6    20    21   ar
     7    21    22   ar
     8    22    16    1
     9    16     1    1
    10     1     2    1
    11     2     3   ar
    12     3     4   ar
    13     4     5   ar
    14     5     6    1
    15     5     7   ar
    16     7     8   ar
    17     1     9    1
    18     9    10    1
    19    10    11    1
    20    11    12    1
    21    12    13    1
    22    13    14    1
    23    22    17   ar
    24     8     2   ar
    25    14     9    1
    26    12    15    1
@<TRIPOS>MOLECULE
*****
 24 26 0 0 0
SMALL
GASTEIGER

@<TRIPOS>ATOM
      1 C         140.4080  140.1933  167.4409 C.3     1  UNL1        0.0847
      2 C         141.6181  140.1429  166.5560 C.ar    1  UNL1       -0.0073
      3 C         142.4769  138.9134  166.5289 C.ar    1  UNL1       -0.0007
      4 C         143.6870  138.8631  165.6439 C.ar    1  UNL1        0.0294
      5 C         144.0383  140.0423  164.7860 C.ar    1  UNL1        0.1401
      6 F         145.2484  139.9920  163.9011 F       1  UNL1       -0.2042
      7 C         143.1795  141.2719  164.8131 C.ar    1  UNL1        0.0294
      8 C         141.9695  141.3222  165.6980 C.ar    1  UNL1       -0.0007
      9 N         140.4920  140.8435  168.7901 N.3     1  UNL1       -0.2676
     10 C         140.7787  140.0134  170.0061 C.3     1  UNL1        0.0896
     11 C         140.8628  140.6635  171.3553 C.3     1  UNL1        0.0862
     12 N         140.6600  142.1437  171.4884 N.3     1  UNL1       -0.2951
     13 C         140.3733  142.9738  170.2723 C.3     1  UNL1        0.0862
     14 C         140.2893  142.3237  168.9232 C.3     1  UNL1        0.0896
     15 H         141.5096  142.5207  171.9086 H       1  UNL1        0.1233
     16 C         139.1139  139.5934  166.9767 C.3     1  UNL1        0.0499
     17 C         138.4753  140.3269  164.5675 C.ar    1  UNL1        0.1347
     18 C         138.2796  139.9957  163.1177 C.ar    1  UNL1        0.0366
     19 C         138.5267  138.5999  162.6272 C.ar    1  UNL1        0.0031
     20 C         138.9696  137.5352  163.5866 C.ar    1  UNL1       -0.0001
     21 C         139.1653  137.8664  165.0364 C.ar    1  UNL1       -0.0012
     22 C         138.9182  139.2622  165.5268 C.ar    1  UNL1        0.0135
     23 C         137.8169  142.7950  164.0930 C.3     1  UNL1        0.2525
     24 O         138.2282  141.7227  165.0580 O.3     1  UNL1       -0.4717
@<TRIPOS>BOND
     1    23    24    1
     2    24    17    1
     3    17    18   ar
     4    18    19   ar
     5    19    20   ar
     6    20    21   ar
     7    21    22   ar
     8    22    16    1
     9    16     1    1
    10     1     2    1
    11     2     3   ar
    12     3     4   ar
    13     4     5   ar
    14     5     6    1
    15     5     7   ar
    16     7     8   ar
    17     1     9    1
    18     9    10    1
    19    10    11    1
    20    11    12    1
    21    12    13    1
    22    13    14    1
    23    22    17   ar
    24     8     2   ar
    25    14     9    1
    26    12    15    1
@<TRIPOS>MOLECULE
*****
 24 26 0 0 0
SMALL
GASTEIGER

@<TRIPOS>ATOM
      1 C         141.4782  142.2517  167.2899 C.3     1  UNL1        0.0847
      2 C         140.3348  142.2024  166.3203 C.ar    1  UNL1       -0.0073
      3 C         139.6009  140.9144  166.0909 C.ar    1  UNL1       -0.0007
      4 C         138.4575  140.8651  165.1212 C.ar    1  UNL1        0.0294
      5 C         138.0480  142.1037  164.3810 C.ar    1  UNL1        0.1401
      6 F         136.9046  142.0544  163.4114 F       1  UNL1       -0.2042
      7 C         138.7818  143.3917  164.6103 C.ar    1  UNL1        0.0294
      8 C         139.9252  143.4410  165.5799 C.ar    1  UNL1       -0.0007
      9 N         141.2145  142.1793  168.7648 N.3     1  UNL1       -0.2676
     10 C         141.9968  141.2278  169.6207 C.3     1  UNL1        0.0896
     11 C         141.7332  141.1554  171.0956 C.3     1  UNL1        0.0862
     12 N         140.6872  142.0345  171.7145 N.3     1  UNL1       -0.2951
     13 C         139.9049  142.9860  170.8585 C.3     1  UNL1        0.0862
     14 C         140.1685  143.0584  169.3837 C.3     1  UNL1        0.0896
     15 H         141.1570  142.5957  172.4249 H       1  UNL1        0.1233
     16 C         142.8853  142.3734  166.7847 C.3     1  UNL1        0.0499
     17 C         144.2696  141.7805  164.6676 C.ar    1  UNL1        0.1347
     18 C         144.8168  140.7563  163.7180 C.ar    1  UNL1        0.0366
     19 C         144.5267  139.3009  163.9360 C.ar    1  UNL1        0.0031
     20 C         143.6895  138.8696  165.1035 C.ar    1  UNL1       -0.0001
     21 C         143.1424  139.8937  166.0530 C.ar    1  UNL1       -0.0012
     22 C         143.4324  141.3492  165.8351 C.ar    1  UNL1        0.0135
     23 C         144.1741  143.8922  163.1570 C.3     1  UNL1        0.2525
     24 O         144.5596  143.2360  164.4496 O.3     1  UNL1       -0.4717
@<TRIPOS>BOND
     1    23    24    1
     2    24    17    1
     3    17    18   ar
     4    18    19   ar
     5    19    20   ar
     6    20    21   ar
     7    21    22   ar
     8    22    16    1
     9    16     1    1
    10     1     2    1
    11     2     3   ar
    12     3     4   ar
    13     4     5   ar
    14     5     6    1
    15     5     7   ar
    16     7     8   ar
    17     1     9    1
    18     9    10    1
    19    10    11    1
    20    11    12    1
    21    12    13    1
    22    13    14    1
    23    22    17   ar
    24     8     2   ar
    25    14     9    1
    26    12    15    1
@<TRIPOS>MOLECULE
*****
 24 26 0 0 0
SMALL
GASTEIGER

@<TRIPOS>ATOM
      1 C         141.5668  141.1228  167.2617 C.3     1  UNL1        0.0847
      2 C         140.7687  140.0754  166.5434 C.ar    1  UNL1       -0.0073
      3 C         139.2876  139.9807  166.7610 C.ar    1  UNL1       -0.0007
      4 C         138.4895  138.9332  166.0426 C.ar    1  UNL1        0.0294
      5 C         139.1726  137.9805  165.1068 C.ar    1  UNL1        0.1401
      6 F         138.3745  136.9331  164.3885 F       1  UNL1       -0.2042
      7 C         140.6537  138.0753  164.8893 C.ar    1  UNL1        0.0294
      8 C         141.4518  139.1227  165.6076 C.ar    1  UNL1       -0.0007
      9 N         141.2410  141.4696  168.6843 N.3     1  UNL1       -0.2676
     10 C         140.4766  142.7223  168.9948 C.3     1  UNL1        0.0896
     11 C         140.1509  143.0690  170.4173 C.3     1  UNL1        0.0862
     12 N         140.5895  142.1630  171.5294 N.3     1  UNL1       -0.2951
     13 C         141.3539  140.9103  171.2189 C.3     1  UNL1        0.0862
     14 C         141.6797  140.5636  169.7964 C.3     1  UNL1        0.0896
     15 H         139.7460  141.8776  172.0267 H       1  UNL1        0.1233
     16 C         142.6906  141.8236  166.5575 C.3     1  UNL1        0.0499
     17 C         143.5017  143.4366  164.6892 C.ar    1  UNL1        0.1347
     18 C         143.2032  144.4819  163.6556 C.ar    1  UNL1        0.0366
     19 C         141.7953  144.9593  163.4566 C.ar    1  UNL1        0.0031
     20 C         140.6857  144.3915  164.2911 C.ar    1  UNL1       -0.0001
     21 C         140.9842  143.3463  165.3248 C.ar    1  UNL1       -0.0012
     22 C         142.3921  142.8689  165.5238 C.ar    1  UNL1        0.0135
     23 C         145.4892  141.9276  163.9663 C.3     1  UNL1        0.2525
     24 O         144.9097  142.9592  164.8883 O.3     1  UNL1       -0.4717
@<TRIPOS>BOND
     1    23    24    1
     2    24    17    1
     3    17    18   ar
     4    18    19   ar
     5    19    20   ar
     6    20    21   ar
     7    21    22   ar
     8    22    16    1
     9    16     1    1
    10     1     2    1
    11     2     3   ar
    12     3     4   ar
    13     4     5   ar
    14     5     6    1
    15     5     7   ar
    16     7     8   ar
    17     1     9    1
    18     9    10    1
    19    10    11    1
    20    11    12    1
    21    12    13    1
    22    13    14    1
    23    22    17   ar
    24     8     2   ar
    25    14     9    1
    26    12    15    1
@<TRIPOS>MOLECULE
*****
 24 26 0 0 0
SMALL
GASTEIGER

@<TRIPOS>ATOM
      1 C         141.5185  141.0772  167.2324 C.3     1  UNL1        0.0847
      2 C         140.7200  140.0237  166.5237 C.ar    1  UNL1       -0.0073
      3 C         141.3719  139.1611  165.4840 C.ar    1  UNL1       -0.0007
      4 C         140.5733  138.1075  164.7753 C.ar    1  UNL1        0.0294
      5 C         139.1228  137.9165  165.1062 C.ar    1  UNL1        0.1401
      6 F         138.3243  136.8629  164.3975 F       1  UNL1       -0.2042
      7 C         138.4709  138.7791  166.1459 C.ar    1  UNL1        0.0294
      8 C         139.2694  139.8326  166.8546 C.ar    1  UNL1       -0.0007
      9 N         141.7058  141.0031  168.7189 N.3     1  UNL1       -0.2676
     10 C         142.6863  140.0302  169.3037 C.3     1  UNL1        0.0896
     11 C         142.8737  139.9562  170.7901 C.3     1  UNL1        0.0862
     12 N         142.0804  140.8550  171.6916 N.3     1  UNL1       -0.2951
     13 C         141.0999  141.8279  171.1068 C.3     1  UNL1        0.0862
     14 C         140.9126  141.9020  169.6205 C.3     1  UNL1        0.0896
     15 H         142.7536  141.4020  172.2284 H       1  UNL1        0.1233
     16 C         142.1298  142.2048  166.4547 C.3     1  UNL1        0.0499
     17 C         141.7861  143.7453  164.3910 C.ar    1  UNL1        0.1347
     18 C         140.9130  144.6590  163.5830 C.ar    1  UNL1        0.0366
     19 C         139.5105  144.9460  164.0308 C.ar    1  UNL1        0.0031
     20 C         138.9811  144.3193  165.2865 C.ar    1  UNL1       -0.0001
     21 C         139.8541  143.4056  166.0945 C.ar    1  UNL1       -0.0012
     22 C         141.2566  143.1186  165.6467 C.ar    1  UNL1        0.0135
     23 C         143.8952  144.4158  163.0300 C.3     1  UNL1        0.2525
     24 O         143.1887  143.4583  163.9432 O.3     1  UNL1       -0.4717
@<TRIPOS>BOND
     1    23    24    1
     2    24    17    1
     3    17    18   ar
     4    18    19   ar
     5    19    20   ar
     6    20    21   ar
     7    21    22   ar
     8    22    16    1
     9    16     1    1
    10     1     2    1
    11     2     3   ar
    12     3     4   ar
    13     4     5   ar
    14     5     6    1
    15     5     7   ar
    16     7     8   ar
    17     1     9    1
    18     9    10    1
    19    10    11    1
    20    11    12    1
    21    12    13    1
    22    13    14    1
    23    22    17   ar
    24     8     2   ar
    25    14     9    1
    26    12    15    1
@<TRIPOS>MOLECULE
*****
 24 26 0 0 0
SMALL
GASTEIGER

@<TRIPOS>ATOM
      1 C         140.7575  141.1663  166.6836 C.3     1  UNL1        0.0847
      2 C         139.8478  141.9996  165.8304 C.ar    1  UNL1       -0.0073
      3 C         138.8133  141.3381  164.9688 C.ar    1  UNL1       -0.0007
      4 C         137.9035  142.1715  164.1156 C.ar    1  UNL1        0.0294
      5 C         138.0284  143.6662  164.1239 C.ar    1  UNL1        0.1401
      6 F         137.1187  144.4995  163.2707 F       1  UNL1       -0.2042
      7 C         139.0629  144.3277  164.9855 C.ar    1  UNL1        0.0294
      8 C         139.9726  143.4944  165.8387 C.ar    1  UNL1       -0.0007
      9 N         140.6353  141.2128  168.1779 N.3     1  UNL1       -0.2676
     10 C         141.4656  142.1799  168.9686 C.3     1  UNL1        0.0896
     11 C         141.3435  142.2264  170.4628 C.3     1  UNL1        0.0862
     12 N         140.3909  141.3058  171.1664 N.3     1  UNL1       -0.2951
     13 C         139.5605  140.3387  170.3757 C.3     1  UNL1        0.0862
     14 C         139.6827  140.2922  168.8815 C.3     1  UNL1        0.0896
     15 H         139.7410  141.8957  171.6860 H       1  UNL1        0.1233
     16 C         141.7895  140.2865  166.0425 C.3     1  UNL1        0.0499
     17 C         143.8400  140.0795  164.4606 C.ar    1  UNL1        0.1347
     18 C         145.0475  140.6893  163.8124 C.ar    1  UNL1        0.0366
     19 C         145.4119  142.1160  164.0981 C.ar    1  UNL1        0.0031
     20 C         144.5688  142.9329  165.0319 C.ar    1  UNL1       -0.0001
     21 C         143.3614  142.3231  165.6800 C.ar    1  UNL1       -0.0012
     22 C         142.9970  140.8964  165.3944 C.ar    1  UNL1        0.0135
     23 C         142.7471  138.3033  162.9111 C.3     1  UNL1        0.2525
     24 O         143.4756  138.6527  164.1749 O.3     1  UNL1       -0.4717
@<TRIPOS>BOND
     1    23    24    1
     2    24    17    1
     3    17    18   ar
     4    18    19   ar
     5    19    20   ar
     6    20    21   ar
     7    21    22   ar
     8    22    16    1
     9    16     1    1
    10     1     2    1
    11     2     3   ar
    12     3     4   ar
    13     4     5   ar
    14     5     6    1
    15     5     7   ar
    16     7     8   ar
    17     1     9    1
    18     9    10    1
    19    10    11    1
    20    11    12    1
    21    12    13    1
    22    13    14    1
    23    22    17   ar
    24     8     2   ar
    25    14     9    1
    26    12    15    1
@<TRIPOS>MOLECULE
*****
 24 26 0 0 0
SMALL
GASTEIGER

@<TRIPOS>ATOM
      1 C         141.7610  141.2571  167.2482 C.3     1  UNL1        0.0847
      2 C         141.4357  142.3222  166.2434 C.ar    1  UNL1       -0.0073
      3 C         142.4732  142.7609  165.2529 C.ar    1  UNL1       -0.0007
      4 C         142.1478  143.8261  164.2481 C.ar    1  UNL1        0.0294
      5 C         140.7849  144.4525  164.2339 C.ar    1  UNL1        0.1401
      6 F         140.4596  145.5176  163.2291 F       1  UNL1       -0.2042
      7 C         139.7475  144.0138  165.2244 C.ar    1  UNL1        0.0294
      8 C         140.0728  142.9487  166.2292 C.ar    1  UNL1       -0.0007
      9 N         141.8355  141.5995  168.7067 N.3     1  UNL1       -0.2676
     10 C         142.8742  142.5634  169.1987 C.3     1  UNL1        0.0896
     11 C         142.9488  142.9059  170.6571 C.3     1  UNL1        0.0862
     12 N         141.9847  142.2843  171.6237 N.3     1  UNL1       -0.2951
     13 C         140.9460  141.3204  171.1317 C.3     1  UNL1        0.0862
     14 C         140.8715  140.9780  169.6733 C.3     1  UNL1        0.0896
     15 H         141.4851  143.0506  172.0750 H       1  UNL1        0.1233
     16 C         142.0118  139.8495  166.7945 C.3     1  UNL1        0.0499
     17 C         141.4158  138.3342  164.7699 C.ar    1  UNL1        0.1347
     18 C         140.3914  137.6204  163.9388 C.ar    1  UNL1        0.0366
     19 C         138.9384  137.7078  164.3010 C.ar    1  UNL1        0.0031
     20 C         138.5099  138.5092  165.4944 C.ar    1  UNL1       -0.0001
     21 C         139.5344  139.2231  166.3256 C.ar    1  UNL1       -0.0012
     22 C         140.9873  139.1356  165.9633 C.ar    1  UNL1        0.0135
     23 C         143.3631  138.8672  163.1346 C.3     1  UNL1        0.2525
     24 O         142.8688  138.2468  164.4077 O.3     1  UNL1       -0.4717
@<TRIPOS>BOND
     1    23    24    1
     2    24    17    1
     3    17    18   ar
     4    18    19   ar
     5    19    20   ar
     6    20    21   ar
     7    21    22   ar
     8    22    16    1
     9    16     1    1
    10     1     2    1
    11     2     3   ar
    12     3     4   ar
    13     4     5   ar
    14     5     6    1
    15     5     7   ar
    16     7     8   ar
    17     1     9    1
    18     9    10    1
    19    10    11    1
    20    11    12    1
    21    12    13    1
    22    13    14    1
    23    22    17   ar
    24     8     2   ar
    25    14     9    1
    26    12    15    1
@<TRIPOS>MOLECULE
*****
 24 26 0 0 0
SMALL
GASTEIGER

@<TRIPOS>ATOM
      1 C         140.7669  141.6846  167.1078 C.3     1  UNL1        0.0847
      2 C         140.9001  140.3730  166.3924 C.ar    1  UNL1       -0.0073
      3 C         139.6879  139.7121  165.8059 C.ar    1  UNL1       -0.0007
      4 C         139.8211  138.4005  165.0903 C.ar    1  UNL1        0.0294
      5 C         141.1664  137.7498  164.9613 C.ar    1  UNL1        0.1401
      6 F         141.2995  136.4382  164.2458 F       1  UNL1       -0.2042
      7 C         142.3785  138.4106  165.5478 C.ar    1  UNL1        0.0294
      8 C         142.2454  139.7222  166.2633 C.ar    1  UNL1       -0.0007
      9 N         141.1753  141.7989  168.5467 N.3     1  UNL1       -0.2676
     10 C         142.4159  142.5567  168.9163 C.3     1  UNL1        0.0896
     11 C         142.8243  142.6710  170.3550 C.3     1  UNL1        0.0862
     12 N         141.9921  142.0275  171.4242 N.3     1  UNL1       -0.2951
     13 C         140.7515  141.2697  171.0547 C.3     1  UNL1        0.0862
     14 C         140.3431  141.1554  169.6159 C.3     1  UNL1        0.0896
     15 H         141.7044  142.7708  172.0608 H       1  UNL1        0.1233
     16 C         140.2254  142.8819  166.3846 C.3     1  UNL1        0.0499
     17 C         140.3714  144.4963  164.3542 C.ar    1  UNL1        0.1347
     18 C         141.1703  145.1341  163.2565 C.ar    1  UNL1        0.0366
     19 C         142.6221  144.7953  163.0915 C.ar    1  UNL1        0.0031
     20 C         143.2751  143.8188  164.0242 C.ar    1  UNL1       -0.0001
     21 C         142.4762  143.1810  165.1218 C.ar    1  UNL1       -0.0012
     22 C         141.0244  143.5197  165.2868 C.ar    1  UNL1        0.0135
     23 C         137.8905  144.1661  163.6568 C.3     1  UNL1        0.2525
     24 O         138.9194  144.8351  164.5192 O.3     1  UNL1       -0.4717
@<TRIPOS>BOND
     1    23    24    1
     2    24    17    1
     3    17    18   ar
     4    18    19   ar
     5    19    20   ar
     6    20    21   ar
     7    21    22   ar
     8    22    16    1
     9    16     1    1
    10     1     2    1
    11     2     3   ar
    12     3     4   ar
    13     4     5   ar
    14     5     6    1
    15     5     7   ar
    16     7     8   ar
    17     1     9    1
    18     9    10    1
    19    10    11    1
    20    11    12    1
    21    12    13    1
    22    13    14    1
    23    22    17   ar
    24     8     2   ar
    25    14     9    1
    26    12    15    1
@<TRIPOS>MOLECULE
*****
 24 26 0 0 0
SMALL
GASTEIGER

@<TRIPOS>ATOM
      1 C         141.3767  142.1774  165.6767 C.3     1  UNL1        0.0847
      2 C         141.6918  142.3747  167.1299 C.ar    1  UNL1       -0.0073
      3 C         140.6196  142.8304  168.0746 C.ar    1  UNL1       -0.0007
      4 C         140.9348  143.0277  169.5279 C.ar    1  UNL1        0.0294
      5 C         142.3221  142.7693  170.0363 C.ar    1  UNL1        0.1401
      6 F         142.6372  142.9666  171.4894 F       1  UNL1       -0.2042
      7 C         143.3943  142.3135  169.0915 C.ar    1  UNL1        0.0294
      8 C         143.0792  142.1162  167.6383 C.ar    1  UNL1       -0.0007
      9 N         140.9214  143.3387  164.8435 N.3     1  UNL1       -0.2676
     10 C         141.9296  144.1976  164.1394 C.3     1  UNL1        0.0896
     11 C         141.4743  145.3589  163.3063 C.3     1  UNL1        0.0862
     12 N         140.0108  145.6612  163.1774 N.3     1  UNL1       -0.2951
     13 C         139.0026  144.8023  163.8815 C.3     1  UNL1        0.0862
     14 C         139.4579  143.6411  164.7146 C.3     1  UNL1        0.0896
     15 H         139.7884  145.6211  162.1827 H       1  UNL1        0.1233
     16 C         141.5170  140.8188  165.0566 C.3     1  UNL1        0.0499
     17 C         140.6700  138.3769  164.7917 C.ar    1  UNL1        0.1347
     18 C         139.6122  137.3373  165.0159 C.ar    1  UNL1        0.0366
     19 C         138.3436  137.6999  165.7294 C.ar    1  UNL1        0.0031
     20 C         138.1327  139.1021  166.2186 C.ar    1  UNL1       -0.0001
     21 C         139.1905  140.1417  165.9943 C.ar    1  UNL1       -0.0012
     22 C         140.4591  139.7791  165.2809 C.ar    1  UNL1        0.0135
     23 C         141.9446  137.8702  162.5851 C.3     1  UNL1        0.2525
     24 O         141.9387  138.0143  164.0782 O.3     1  UNL1       -0.4717
@<TRIPOS>BOND
     1    23    24    1
     2    24    17    1
     3    17    18   ar
     4    18    19   ar
     5    19    20   ar
     6    20    21   ar
     7    21    22   ar
     8    22    16    1
     9    16     1    1
    10     1     2    1
    11     2     3   ar
    12     3     4   ar
    13     4     5   ar
    14     5     6    1
    15     5     7   ar
    16     7     8   ar
    17     1     9    1
    18     9    10    1
    19    10    11    1
    20    11    12    1
    21    12    13    1
    22    13    14    1
    23    22    17   ar
    24     8     2   ar
    25    14     9    1
    26    12    15    1
