@<TRIPOS>MOLECULE
*****
 27 30 0 0 0
SMALL
GASTEIGER

@<TRIPOS>ATOM
      1 C         138.5371  139.0882  165.5086 C.ar    1  UNL1       -0.0065
      2 C         138.8446  137.7869  164.8288 C.ar    1  UNL1       -0.0032
      3 C         138.9590  137.7302  163.3343 C.ar    1  UNL1       -0.0032
      4 C         138.7660  138.9747  162.5195 C.ar    1  UNL1       -0.0062
      5 C         138.4586  140.2760  163.1993 C.ar    1  UNL1       -0.0231
      6 C         138.3441  140.3327  164.6938 C.ar    1  UNL1       -0.0074
      7 C         138.2655  141.5206  162.3845 C.3     1  UNL1        0.0476
      8 C         138.3800  141.4639  160.8900 C.3     1  UNL1        0.0987
      9 N         138.6874  140.1625  160.2102 N.am    1  UNL1       -0.2705
     10 C         138.8018  140.1058  158.7156 C.2     1  UNL1        0.2652
     11 O         139.1093  138.8045  158.0358 O.2     1  UNL1       -0.2683
     12 C         138.8804  138.9180  161.0249 C.3     1  UNL1        0.1202
     13 C         138.6088  141.3504  157.9009 C.ar    1  UNL1        0.1143
     14 C         139.5528  142.5140  157.8314 C.ar    1  UNL1        0.0234
     15 C         138.9653  143.5326  156.9002 C.ar    1  UNL1        0.0209
     16 C         139.4517  144.8774  156.4476 C.ar    1  UNL1        0.0275
     17 C         138.6309  145.6882  155.4890 C.ar    1  UNL1        0.1155
     18 BR        139.1173  147.0331  155.0364 Br      1  UNL1       -0.0280
     19 N         137.3238  145.1541  154.9829 N.ar    1  UNL1       -0.2356
     20 C         136.8374  143.8093  155.4354 C.ar    1  UNL1        0.1165
     21 C         137.6581  142.9985  156.3940 C.ar    1  UNL1        0.0795
     22 N         137.4378  141.6498  157.0125 N.ar    1  UNL1       -0.3204
     23 C         136.2543  140.7573  156.7830 C.3     1  UNL1        0.1306
     24 C         138.4227  139.1449  167.0032 C.3     1  UNL1        0.0992
     25 C         140.8920  139.9172  167.2405 C.3     1  UNL1        0.0899
     26 N         139.5135  139.7776  167.8154 N.3     1  UNL1       -0.2665
     27 C         139.2260  140.2707  169.2026 C.3     1  UNL1        0.0899
@<TRIPOS>BOND
     1    25    26    1
     2    26    27    1
     3    26    24    1
     4    24     1    1
     5     1     2   ar
     6     2     3   ar
     7     3     4   ar
     8     4     5   ar
     9     5     6   ar
    10     5     7    1
    11     7     8    1
    12     8     9    1
    13     9    10   am
    14    10    11    2
    15    10    13    1
    16    13    14   ar
    17    14    15   ar
    18    15    16   ar
    19    16    17   ar
    20    17    18    1
    21    17    19   ar
    22    19    20   ar
    23    20    21   ar
    24    21    22   ar
    25    22    23    1
    26     9    12    1
    27     6     1   ar
    28    22    13   ar
    29    12     4    1
    30    21    15   ar
@<TRIPOS>MOLECULE
*****
 27 30 0 0 0
SMALL
GASTEIGER

@<TRIPOS>ATOM
      1 C         142.0402  137.4273  157.6233 C.ar    1  UNL1       -0.0065
      2 C         140.7137  137.9049  157.1110 C.ar    1  UNL1       -0.0032
      3 C         139.7762  138.6368  158.0249 C.ar    1  UNL1       -0.0032
      4 C         140.1650  138.8911  159.4511 C.ar    1  UNL1       -0.0062
      5 C         141.4914  138.4135  159.9634 C.ar    1  UNL1       -0.0231
      6 C         142.4290  137.6816  159.0495 C.ar    1  UNL1       -0.0074
      7 C         141.8803  138.6678  161.3897 C.3     1  UNL1        0.0476
      8 C         140.9427  139.3996  162.3036 C.3     1  UNL1        0.0987
      9 N         139.6162  139.8772  161.7913 N.am    1  UNL1       -0.2705
     10 C         138.6786  140.6091  162.7052 C.2     1  UNL1        0.2652
     11 O         137.3522  141.0867  162.1929 O.2     1  UNL1       -0.2683
     12 C         139.2274  139.6230  160.3651 C.3     1  UNL1        0.1202
     13 C         139.0675  140.8634  164.1315 C.ar    1  UNL1        0.1143
     14 C         139.5551  142.1658  164.6937 C.ar    1  UNL1        0.0234
     15 C         139.8260  141.9672  166.1556 C.ar    1  UNL1        0.0209
     16 C         140.3229  142.8999  167.2200 C.ar    1  UNL1        0.0275
     17 C         140.4996  142.4075  168.6259 C.ar    1  UNL1        0.1155
     18 BR        140.9964  143.3402  169.6904 Br      1  UNL1       -0.0280
     19 N         140.1794  140.9824  168.9672 N.ar    1  UNL1       -0.2356
     20 C         139.6825  140.0497  167.9027 C.ar    1  UNL1        0.1165
     21 C         139.5058  140.5420  166.4969 C.ar    1  UNL1        0.0795
     22 N         139.0371  139.8599  165.2460 N.ar    1  UNL1       -0.3204
     23 C         138.6124  138.4260  165.1299 C.3     1  UNL1        0.1306
     24 C         142.9778  136.6955  156.7093 C.3     1  UNL1        0.0992
     25 C         143.6576  134.2637  157.3212 C.3     1  UNL1        0.0899
     26 N         142.8293  135.2161  156.5108 N.3     1  UNL1       -0.2665
     27 C         141.8525  134.6891  155.5017 C.3     1  UNL1        0.0899
@<TRIPOS>BOND
     1    25    26    1
     2    26    27    1
     3    26    24    1
     4    24     1    1
     5     1     2   ar
     6     2     3   ar
     7     3     4   ar
     8     4     5   ar
     9     5     6   ar
    10     5     7    1
    11     7     8    1
    12     8     9    1
    13     9    10   am
    14    10    11    2
    15    10    13    1
    16    13    14   ar
    17    14    15   ar
    18    15    16   ar
    19    16    17   ar
    20    17    18    1
    21    17    19   ar
    22    19    20   ar
    23    20    21   ar
    24    21    22   ar
    25    22    23    1
    26     9    12    1
    27     6     1   ar
    28    22    13   ar
    29    12     4    1
    30    21    15   ar
@<TRIPOS>MOLECULE
*****
 27 30 0 0 0
SMALL
GASTEIGER

@<TRIPOS>ATOM
      1 C         140.9685  142.6397  167.8023 C.ar    1  UNL1       -0.0065
      2 C         142.3949  142.2231  167.5981 C.ar    1  UNL1       -0.0032
      3 C         142.9957  142.2534  166.2240 C.ar    1  UNL1       -0.0032
      4 C         142.1701  142.7003  165.0542 C.ar    1  UNL1       -0.0062
      5 C         140.7437  143.1169  165.2584 C.ar    1  UNL1       -0.0231
      6 C         140.1429  143.0866  166.6325 C.ar    1  UNL1       -0.0074
      7 C         139.9180  143.5639  164.0885 C.3     1  UNL1        0.0476
      8 C         140.5189  143.5942  162.7144 C.3     1  UNL1        0.0987
      9 N         141.9453  143.1776  162.5102 N.am    1  UNL1       -0.2705
     10 C         142.5462  143.2079  161.1361 C.2     1  UNL1        0.2652
     11 O         143.9726  142.7913  160.9319 O.2     1  UNL1       -0.2683
     12 C         142.7709  142.7307  163.6801 C.3     1  UNL1        0.1202
     13 C         141.7205  143.6549  159.9662 C.ar    1  UNL1        0.1143
     14 C         141.6417  145.0515  159.4249 C.ar    1  UNL1        0.0234
     15 C         140.7012  145.0435  158.2565 C.ar    1  UNL1        0.0209
     16 C         140.2374  146.1313  157.3337 C.ar    1  UNL1        0.0275
     17 C         139.2711  145.8175  156.2302 C.ar    1  UNL1        0.1155
     18 BR        138.8073  146.9054  155.3075 Br      1  UNL1       -0.0280
     19 N         138.7685  144.4158  156.0494 N.ar    1  UNL1       -0.2356
     20 C         139.2323  143.3279  156.9721 C.ar    1  UNL1        0.1165
     21 C         140.1986  143.6417  158.0756 C.ar    1  UNL1        0.0795
     22 N         140.8286  142.7836  159.1323 N.ar    1  UNL1       -0.3204
     23 C         140.6058  141.3124  159.3219 C.3     1  UNL1        0.1306
     24 C         140.3677  142.6093  169.1764 C.3     1  UNL1        0.0992
     25 C         141.2666  141.0027  171.0095 C.3     1  UNL1        0.0899
     26 N         140.2764  141.3137  169.9266 N.3     1  UNL1       -0.2665
     27 C         139.1949  140.3289  169.5939 C.3     1  UNL1        0.0899
@<TRIPOS>BOND
     1    25    26    1
     2    26    27    1
     3    26    24    1
     4    24     1    1
     5     1     2   ar
     6     2     3   ar
     7     3     4   ar
     8     4     5   ar
     9     5     6   ar
    10     5     7    1
    11     7     8    1
    12     8     9    1
    13     9    10   am
    14    10    11    2
    15    10    13    1
    16    13    14   ar
    17    14    15   ar
    18    15    16   ar
    19    16    17   ar
    20    17    18    1
    21    17    19   ar
    22    19    20   ar
    23    20    21   ar
    24    21    22   ar
    25    22    23    1
    26     9    12    1
    27     6     1   ar
    28    22    13   ar
    29    12     4    1
    30    21    15   ar
@<TRIPOS>MOLECULE
*****
 27 30 0 0 0
SMALL
GASTEIGER

@<TRIPOS>ATOM
      1 C         139.3791  140.1775  168.3159 C.ar    1  UNL1       -0.0065
      2 C         138.3326  139.1994  167.8710 C.ar    1  UNL1       -0.0032
      3 C         137.9897  139.0779  166.4158 C.ar    1  UNL1       -0.0032
      4 C         138.6934  139.9347  165.4054 C.ar    1  UNL1       -0.0062
      5 C         139.7399  140.9128  165.8503 C.ar    1  UNL1       -0.0231
      6 C         140.0828  141.0342  167.3055 C.ar    1  UNL1       -0.0074
      7 C         140.4437  141.7696  164.8399 C.3     1  UNL1        0.0476
      8 C         140.1008  141.6481  163.3847 C.3     1  UNL1        0.0987
      9 N         139.0542  140.6699  162.9398 N.am    1  UNL1       -0.2705
     10 C         138.7114  140.5485  161.4846 C.2     1  UNL1        0.2652
     11 O         137.6648  139.5704  161.0397 O.2     1  UNL1       -0.2683
     12 C         138.3505  139.8132  163.9502 C.3     1  UNL1        0.1202
     13 C         139.4151  141.4053  160.4742 C.ar    1  UNL1        0.1143
     14 C         138.9077  142.6985  159.9084 C.ar    1  UNL1        0.0234
     15 C         139.9288  143.2117  158.9368 C.ar    1  UNL1        0.0209
     16 C         139.9690  144.4416  158.0792 C.ar    1  UNL1        0.0275
     17 C         141.1478  144.6955  157.1869 C.ar    1  UNL1        0.1155
     18 BR        141.1880  145.9255  156.3292 Br      1  UNL1       -0.0280
     19 N         142.2862  143.7195  157.1523 N.ar    1  UNL1       -0.2356
     20 C         142.2460  142.4896  158.0099 C.ar    1  UNL1        0.1165
     21 C         141.0673  142.2356  158.9022 C.ar    1  UNL1        0.0795
     22 N         140.7498  141.1193  159.8524 N.ar    1  UNL1       -0.3204
     23 C         141.6152  139.9263  160.1317 C.3     1  UNL1        0.1306
     24 C         139.7219  140.2989  169.7711 C.3     1  UNL1        0.0992
     25 C         142.1100  139.2804  169.8688 C.3     1  UNL1        0.0899
     26 N         141.1568  140.3907  170.1985 N.3     1  UNL1       -0.2665
     27 C         141.6385  141.5927  170.9555 C.3     1  UNL1        0.0899
@<TRIPOS>BOND
     1    25    26    1
     2    26    27    1
     3    26    24    1
     4    24     1    1
     5     1     2   ar
     6     2     3   ar
     7     3     4   ar
     8     4     5   ar
     9     5     6   ar
    10     5     7    1
    11     7     8    1
    12     8     9    1
    13     9    10   am
    14    10    11    2
    15    10    13    1
    16    13    14   ar
    17    14    15   ar
    18    15    16   ar
    19    16    17   ar
    20    17    18    1
    21    17    19   ar
    22    19    20   ar
    23    20    21   ar
    24    21    22   ar
    25    22    23    1
    26     9    12    1
    27     6     1   ar
    28    22    13   ar
    29    12     4    1
    30    21    15   ar
@<TRIPOS>MOLECULE
*****
 27 30 0 0 0
SMALL
GASTEIGER

@<TRIPOS>ATOM
      1 C         139.8848  146.6642  155.9836 C.ar    1  UNL1       -0.0065
      2 C         141.1087  146.1373  155.2949 C.ar    1  UNL1       -0.0032
      3 C         142.0772  145.2715  156.0449 C.ar    1  UNL1       -0.0032
      4 C         141.8218  144.9327  157.4836 C.ar    1  UNL1       -0.0062
      5 C         140.5979  145.4596  158.1723 C.ar    1  UNL1       -0.0231
      6 C         139.6294  146.3253  157.4223 C.ar    1  UNL1       -0.0074
      7 C         140.3425  145.1207  159.6110 C.3     1  UNL1        0.0476
      8 C         141.3110  144.2550  160.3610 C.3     1  UNL1        0.0987
      9 N         142.5350  143.7281  159.6722 N.am    1  UNL1       -0.2705
     10 C         143.5035  142.8623  160.4222 C.2     1  UNL1        0.2652
     11 O         144.7274  142.3355  159.7335 O.2     1  UNL1       -0.2683
     12 C         142.7904  144.0669  158.2335 C.3     1  UNL1        0.1202
     13 C         143.2480  142.5235  161.8610 C.ar    1  UNL1        0.1143
     14 C         143.8724  143.1935  163.0489 C.ar    1  UNL1        0.0234
     15 C         143.3336  142.5392  164.2865 C.ar    1  UNL1        0.0209
     16 C         143.5911  142.7830  165.7440 C.ar    1  UNL1        0.0275
     17 C         142.8911  141.9523  166.7784 C.ar    1  UNL1        0.1155
     18 BR        143.1485  142.1960  168.2359 Br      1  UNL1       -0.0280
     19 N         141.9337  140.8779  166.3553 N.ar    1  UNL1       -0.2356
     20 C         141.6762  140.6341  164.8978 C.ar    1  UNL1        0.1165
     21 C         142.3762  141.4648  163.8634 C.ar    1  UNL1        0.0795
     22 N         142.3233  141.4551  162.3644 N.ar    1  UNL1       -0.3204
     23 C         141.4917  140.5379  161.5175 C.3     1  UNL1        0.1306
     24 C         138.9163  147.5299  155.2336 C.3     1  UNL1        0.0992
     25 C         140.1334  149.5410  154.1274 C.3     1  UNL1        0.0899
     26 N         139.1547  149.0072  155.1310 N.3     1  UNL1       -0.2665
     27 C         138.4145  149.9508  156.0320 C.3     1  UNL1        0.0899
@<TRIPOS>BOND
     1    25    26    1
     2    26    27    1
     3    26    24    1
     4    24     1    1
     5     1     2   ar
     6     2     3   ar
     7     3     4   ar
     8     4     5   ar
     9     5     6   ar
    10     5     7    1
    11     7     8    1
    12     8     9    1
    13     9    10   am
    14    10    11    2
    15    10    13    1
    16    13    14   ar
    17    14    15   ar
    18    15    16   ar
    19    16    17   ar
    20    17    18    1
    21    17    19   ar
    22    19    20   ar
    23    20    21   ar
    24    21    22   ar
    25    22    23    1
    26     9    12    1
    27     6     1   ar
    28    22    13   ar
    29    12     4    1
    30    21    15   ar
@<TRIPOS>MOLECULE
*****
 27 30 0 0 0
SMALL
GASTEIGER

@<TRIPOS>ATOM
      1 C         138.7017  143.0254  157.2889 C.ar    1  UNL1       -0.0065
      2 C         138.0142  141.7335  156.9601 C.ar    1  UNL1       -0.0032
      3 C         137.8928  140.6619  158.0027 C.ar    1  UNL1       -0.0032
      4 C         138.4590  140.8823  159.3741 C.ar    1  UNL1       -0.0062
      5 C         139.1466  142.1742  159.7029 C.ar    1  UNL1       -0.0231
      6 C         139.2679  143.2458  158.6604 C.ar    1  UNL1       -0.0074
      7 C         139.7128  142.3946  161.0744 C.3     1  UNL1        0.0476
      8 C         139.5915  141.3230  162.1170 C.3     1  UNL1        0.0987
      9 N         138.9039  140.0310  161.7881 N.am    1  UNL1       -0.2705
     10 C         138.7826  138.9594  162.8307 C.2     1  UNL1        0.2652
     11 O         138.0950  137.6675  162.5019 O.2     1  UNL1       -0.2683
     12 C         138.3377  139.8107  160.4167 C.3     1  UNL1        0.1202
     13 C         139.3488  139.1798  164.2022 C.ar    1  UNL1        0.1143
     14 C         138.5622  139.4861  165.4421 C.ar    1  UNL1        0.0234
     15 C         139.5283  139.6282  166.5807 C.ar    1  UNL1        0.0209
     16 C         139.3269  139.9283  168.0365 C.ar    1  UNL1        0.0275
     17 C         140.5092  140.0099  168.9560 C.ar    1  UNL1        0.1155
     18 BR        140.3077  140.3100  170.4118 Br      1  UNL1       -0.0280
     19 N         141.8929  139.7915  168.4198 N.ar    1  UNL1       -0.2356
     20 C         142.0944  139.4914  166.9640 C.ar    1  UNL1        0.1165
     21 C         140.9121  139.4097  166.0444 C.ar    1  UNL1        0.0795
     22 N         140.8012  139.1326  164.5744 N.ar    1  UNL1       -0.3204
     23 C         141.9422  138.8568  163.6407 C.3     1  UNL1        0.1306
     24 C         138.8231  144.0970  156.2464 C.3     1  UNL1        0.0992
     25 C         139.8013  146.4583  156.7124 C.3     1  UNL1        0.0899
     26 N         139.9912  145.0376  156.2701 N.3     1  UNL1       -0.2665
     27 C         141.3493  144.5577  155.8513 C.3     1  UNL1        0.0899
@<TRIPOS>BOND
     1    25    26    1
     2    26    27    1
     3    26    24    1
     4    24     1    1
     5     1     2   ar
     6     2     3   ar
     7     3     4   ar
     8     4     5   ar
     9     5     6   ar
    10     5     7    1
    11     7     8    1
    12     8     9    1
    13     9    10   am
    14    10    11    2
    15    10    13    1
    16    13    14   ar
    17    14    15   ar
    18    15    16   ar
    19    16    17   ar
    20    17    18    1
    21    17    19   ar
    22    19    20   ar
    23    20    21   ar
    24    21    22   ar
    25    22    23    1
    26     9    12    1
    27     6     1   ar
    28    22    13   ar
    29    12     4    1
    30    21    15   ar
@<TRIPOS>MOLECULE
*****
 27 30 0 0 0
SMALL
GASTEIGER

@<TRIPOS>ATOM
      1 C         142.1977  135.7119  155.9336 C.ar    1  UNL1       -0.0065
      2 C         140.9812  135.8770  155.0717 C.ar    1  UNL1       -0.0032
      3 C         139.9857  136.9564  155.3782 C.ar    1  UNL1       -0.0032
      4 C         140.2068  137.8708  156.5465 C.ar    1  UNL1       -0.0062
      5 C         141.4233  137.7057  157.4084 C.ar    1  UNL1       -0.0231
      6 C         142.4187  136.6263  157.1019 C.ar    1  UNL1       -0.0074
      7 C         141.6444  138.6201  158.5768 C.3     1  UNL1        0.0476
      8 C         140.6490  139.6995  158.8833 C.3     1  UNL1        0.0987
      9 N         139.4324  139.8646  158.0213 N.am    1  UNL1       -0.2705
     10 C         138.4370  140.9440  158.3278 C.2     1  UNL1        0.2652
     11 O         137.2205  141.1091  157.4660 O.2     1  UNL1       -0.2683
     12 C         139.2114  138.9502  156.8530 C.3     1  UNL1        0.1202
     13 C         138.6581  141.8584  159.4962 C.ar    1  UNL1        0.1143
     14 C         138.1133  141.6675  160.8807 C.ar    1  UNL1        0.0234
     15 C         138.5813  142.8153  161.7253 C.ar    1  UNL1        0.0209
     16 C         138.3558  143.1570  163.1684 C.ar    1  UNL1        0.0275
     17 C         138.9644  144.3991  163.7490 C.ar    1  UNL1        0.1155
     18 BR        138.7389  144.7408  165.1920 Br      1  UNL1       -0.0280
     19 N         139.7984  145.2994  162.8865 N.ar    1  UNL1       -0.2356
     20 C         140.0239  144.9577  161.4435 C.ar    1  UNL1        0.1165
     21 C         139.4154  143.7157  160.8629 C.ar    1  UNL1        0.0795
     22 N         139.4628  143.1242  159.4852 N.ar    1  UNL1       -0.3204
     23 C         140.1877  143.6979  158.3040 C.3     1  UNL1        0.1306
     24 C         143.1931  134.6325  155.6271 C.3     1  UNL1        0.0992
     25 C         144.2213  133.3980  157.6689 C.3     1  UNL1        0.0899
     26 N         143.2766  133.4183  156.5039 N.3     1  UNL1       -0.2665
     27 C         142.4154  132.2244  156.2157 C.3     1  UNL1        0.0899
@<TRIPOS>BOND
     1    25    26    1
     2    26    27    1
     3    26    24    1
     4    24     1    1
     5     1     2   ar
     6     2     3   ar
     7     3     4   ar
     8     4     5   ar
     9     5     6   ar
    10     5     7    1
    11     7     8    1
    12     8     9    1
    13     9    10   am
    14    10    11    2
    15    10    13    1
    16    13    14   ar
    17    14    15   ar
    18    15    16   ar
    19    16    17   ar
    20    17    18    1
    21    17    19   ar
    22    19    20   ar
    23    20    21   ar
    24    21    22   ar
    25    22    23    1
    26     9    12    1
    27     6     1   ar
    28    22    13   ar
    29    12     4    1
    30    21    15   ar
@<TRIPOS>MOLECULE
*****
 27 30 0 0 0
SMALL
GASTEIGER

@<TRIPOS>ATOM
      1 C         140.2596  141.6988  168.0377 C.ar    1  UNL1       -0.0065
      2 C         139.6154  140.3661  168.2802 C.ar    1  UNL1       -0.0032
      3 C         139.1337  139.5440  167.1217 C.ar    1  UNL1       -0.0032
      4 C         139.2962  140.0545  165.7207 C.ar    1  UNL1       -0.0062
      5 C         139.9405  141.3872  165.4782 C.ar    1  UNL1       -0.0231
      6 C         140.4222  142.2093  166.6367 C.ar    1  UNL1       -0.0074
      7 C         140.1031  141.8978  164.0771 C.3     1  UNL1        0.0476
      8 C         139.6214  141.0757  162.9186 C.3     1  UNL1        0.0987
      9 N         138.9771  139.7429  163.1612 N.am    1  UNL1       -0.2705
     10 C         138.4954  138.9208  162.0027 C.2     1  UNL1        0.2652
     11 O         137.8512  137.5881  162.2453 O.2     1  UNL1       -0.2683
     12 C         138.8146  139.2324  164.5622 C.3     1  UNL1        0.1202
     13 C         138.6580  139.4314  160.6017 C.ar    1  UNL1        0.1143
     14 C         137.6232  140.1719  159.8075 C.ar    1  UNL1        0.0234
     15 C         138.2096  140.4893  158.4638 C.ar    1  UNL1        0.0209
     16 C         137.6518  141.2036  157.2686 C.ar    1  UNL1        0.0275
     17 C         138.4914  141.3736  156.0372 C.ar    1  UNL1        0.1155
     18 BR        137.9335  142.0880  154.8419 Br      1  UNL1       -0.0280
     19 N         139.8886  140.8293  156.0010 N.ar    1  UNL1       -0.2356
     20 C         140.4464  140.1150  157.1962 C.ar    1  UNL1        0.1165
     21 C         139.6070  139.9450  158.4276 C.ar    1  UNL1        0.0795
     22 N         139.8841  139.2912  159.7489 N.ar    1  UNL1       -0.3204
     23 C         141.1627  138.6158  160.1474 C.3     1  UNL1        0.1306
     24 C         140.7413  142.5209  169.1962 C.3     1  UNL1        0.0992
     25 C         143.2871  142.3809  169.6956 C.3     1  UNL1        0.0899
     26 N         141.8727  142.0264  170.0478 N.3     1  UNL1       -0.2665
     27 C         141.5899  141.1772  171.2516 C.3     1  UNL1        0.0899
@<TRIPOS>BOND
     1    25    26    1
     2    26    27    1
     3    26    24    1
     4    24     1    1
     5     1     2   ar
     6     2     3   ar
     7     3     4   ar
     8     4     5   ar
     9     5     6   ar
    10     5     7    1
    11     7     8    1
    12     8     9    1
    13     9    10   am
    14    10    11    2
    15    10    13    1
    16    13    14   ar
    17    14    15   ar
    18    15    16   ar
    19    16    17   ar
    20    17    18    1
    21    17    19   ar
    22    19    20   ar
    23    20    21   ar
    24    21    22   ar
    25    22    23    1
    26     9    12    1
    27     6     1   ar
    28    22    13   ar
    29    12     4    1
    30    21    15   ar
@<TRIPOS>MOLECULE
*****
 27 30 0 0 0
SMALL
GASTEIGER

@<TRIPOS>ATOM
      1 C         144.1803  141.5292  157.4095 C.ar    1  UNL1       -0.0065
      2 C         143.7467  140.1485  157.0151 C.ar    1  UNL1       -0.0032
      3 C         143.1424  139.2316  158.0369 C.ar    1  UNL1       -0.0032
      4 C         142.9716  139.6953  159.4531 C.ar    1  UNL1       -0.0062
      5 C         143.4051  141.0761  159.8475 C.ar    1  UNL1       -0.0231
      6 C         144.0095  141.9930  158.8257 C.ar    1  UNL1       -0.0074
      7 C         143.2344  141.5399  161.2638 C.3     1  UNL1        0.0476
      8 C         142.6300  140.6230  162.2855 C.3     1  UNL1        0.0987
      9 N         142.1965  139.2422  161.8910 N.am    1  UNL1       -0.2705
     10 C         141.5922  138.3253  162.9128 C.2     1  UNL1        0.2652
     11 O         141.1586  136.9445  162.5184 O.2     1  UNL1       -0.2683
     12 C         142.3673  138.7784  160.4748 C.3     1  UNL1        0.1202
     13 C         141.4214  138.7891  164.3291 C.ar    1  UNL1        0.1143
     14 C         140.1201  139.1205  164.9975 C.ar    1  UNL1        0.0234
     15 C         140.4164  139.5392  166.4071 C.ar    1  UNL1        0.0209
     16 C         139.5263  139.9772  167.5322 C.ar    1  UNL1        0.0275
     17 C         140.1207  140.3426  168.8601 C.ar    1  UNL1        0.1155
     18 BR        139.2306  140.7806  169.9852 Br      1  UNL1       -0.0280
     19 N         141.6052  140.2700  169.0628 N.ar    1  UNL1       -0.2356
     20 C         142.4952  139.8319  167.9377 C.ar    1  UNL1        0.1165
     21 C         141.9009  139.4666  166.6098 C.ar    1  UNL1        0.0795
     22 N         142.5220  139.0030  165.3256 N.ar    1  UNL1       -0.3204
     23 C         143.9865  138.7906  165.0808 C.3     1  UNL1        0.1306
     24 C         144.7846  142.4461  156.3877 C.3     1  UNL1        0.0992
     25 C         146.5196  141.6248  154.6371 C.3     1  UNL1        0.0899
     26 N         146.2103  142.2581  155.9612 N.3     1  UNL1       -0.2665
     27 C         147.3267  142.7033  156.8587 C.3     1  UNL1        0.0899
@<TRIPOS>BOND
     1    25    26    1
     2    26    27    1
     3    26    24    1
     4    24     1    1
     5     1     2   ar
     6     2     3   ar
     7     3     4   ar
     8     4     5   ar
     9     5     6   ar
    10     5     7    1
    11     7     8    1
    12     8     9    1
    13     9    10   am
    14    10    11    2
    15    10    13    1
    16    13    14   ar
    17    14    15   ar
    18    15    16   ar
    19    16    17   ar
    20    17    18    1
    21    17    19   ar
    22    19    20   ar
    23    20    21   ar
    24    21    22   ar
    25    22    23    1
    26     9    12    1
    27     6     1   ar
    28    22    13   ar
    29    12     4    1
    30    21    15   ar
