@<TRIPOS>MOLECULE
*****
 20 22 0 0 0
SMALL
GASTEIGER

@<TRIPOS>ATOM
      1 C         138.6993  139.7174  166.2775 C.ar    1  UNL1        0.0536
      2 C         138.5752  140.6249  165.0896 C.ar    1  UNL1        0.0829
      3 N         139.3014  141.8996  165.4024 N.ar    1  UNL1       -0.3048
      4 C         139.8742  141.7799  166.7835 C.ar    1  UNL1        0.0642
      5 C         140.6866  142.7248  167.6185 C.ar    1  UNL1        0.0184
      6 C         141.1269  142.3210  168.9943 C.ar    1  UNL1        0.0129
      7 C         140.7547  140.9723  169.5352 C.ar    1  UNL1        0.0578
      8 CL        141.1950  140.5685  170.9112 Cl      1  UNL1       -0.0822
      9 C         139.9424  140.0274  168.7003 C.ar    1  UNL1        0.0130
     10 C         139.5021  140.4312  167.3244 C.ar    1  UNL1        0.0212
     11 C         139.4318  143.0858  164.4935 C.ar    1  UNL1        0.0642
     12 C         138.2354  143.5903  163.7424 C.ar    1  UNL1        0.0198
     13 C         138.3658  144.7765  162.8335 C.ar    1  UNL1        0.0311
     14 C         139.6926  145.4581  162.6758 C.ar    1  UNL1        0.1402
     15 F         139.8231  146.6443  161.7669 F       1  UNL1       -0.2042
     16 C         140.8890  144.9536  163.4268 C.ar    1  UNL1        0.0311
     17 C         140.7586  143.7674  164.3357 C.ar    1  UNL1        0.0198
     18 C         138.5940  137.2454  165.4848 C.3     1  UNL1        0.0773
     19 C         138.1218  138.3382  166.3975 C.2     1  UNL1        0.1750
     20 O         137.0723  138.0517  167.4301 O.2     1  UNL1       -0.2913
@<TRIPOS>BOND
     1    18    19    1
     2    19    20    2
     3    19     1    1
     4     1     2   ar
     5     2     3   ar
     6     3    11    1
     7    11    12   ar
     8    12    13   ar
     9    13    14   ar
    10    14    15    1
    11    14    16   ar
    12    16    17   ar
    13     3     4   ar
    14     4     5   ar
    15     5     6   ar
    16     6     7   ar
    17     7     8    1
    18     7     9   ar
    19     9    10   ar
    20    10     1   ar
    21    17    11   ar
    22    10     4   ar
@<TRIPOS>MOLECULE
*****
 20 22 0 0 0
SMALL
GASTEIGER

@<TRIPOS>ATOM
      1 C         140.4785  141.6400  168.9635 C.ar    1  UNL1        0.0536
      2 C         141.4679  142.4929  168.2262 C.ar    1  UNL1        0.0829
      3 N         141.4313  142.0996  166.7791 N.ar    1  UNL1       -0.3048
      4 C         140.4193  141.0036  166.6221 C.ar    1  UNL1        0.0642
      5 C         139.9579  140.2276  165.4243 C.ar    1  UNL1        0.0184
      6 C         138.9076  139.1675  165.5765 C.ar    1  UNL1        0.0129
      7 C         138.3188  138.8834  166.9266 C.ar    1  UNL1        0.0578
      8 CL        137.2685  137.8233  167.0787 Cl      1  UNL1       -0.0822
      9 C         138.7802  139.6595  168.1244 C.ar    1  UNL1        0.0130
     10 C         139.8304  140.7195  167.9722 C.ar    1  UNL1        0.0212
     11 C         142.2610  142.6973  165.6817 C.ar    1  UNL1        0.0642
     12 C         141.6143  143.5555  164.6351 C.ar    1  UNL1        0.0198
     13 C         142.4440  144.1532  163.5376 C.ar    1  UNL1        0.0311
     14 C         143.9203  143.8928  163.4868 C.ar    1  UNL1        0.1402
     15 F         144.7500  144.4905  162.3894 F       1  UNL1       -0.2042
     16 C         144.5669  143.0346  164.5334 C.ar    1  UNL1        0.0311
     17 C         143.7372  142.4369  165.6308 C.ar    1  UNL1        0.0198
     18 C         140.7517  140.6526  171.3511 C.3     1  UNL1        0.0773
     19 C         140.1882  141.6974  170.4340 C.2     1  UNL1        0.1750
     20 O         139.3345  142.7995  170.9875 O.2     1  UNL1       -0.2913
@<TRIPOS>BOND
     1    18    19    1
     2    19    20    2
     3    19     1    1
     4     1     2   ar
     5     2     3   ar
     6     3    11    1
     7    11    12   ar
     8    12    13   ar
     9    13    14   ar
    10    14    15    1
    11    14    16   ar
    12    16    17   ar
    13     3     4   ar
    14     4     5   ar
    15     5     6   ar
    16     6     7   ar
    17     7     8    1
    18     7     9   ar
    19     9    10   ar
    20    10     1   ar
    21    17    11   ar
    22    10     4   ar
@<TRIPOS>MOLECULE
*****
 20 22 0 0 0
SMALL
GASTEIGER

@<TRIPOS>ATOM
      1 C         140.3307  141.6579  168.1421 C.ar    1  UNL1        0.0536
      2 C         140.6396  142.8624  167.3032 C.ar    1  UNL1        0.0829
      3 N         140.0286  142.6534  165.9493 N.ar    1  UNL1       -0.3048
      4 C         139.3420  141.3197  165.9515 C.ar    1  UNL1        0.0642
      5 C         138.5710  140.5860  164.8945 C.ar    1  UNL1        0.0184
      6 C         137.9867  139.2372  165.1928 C.ar    1  UNL1        0.0129
      7 C         138.1733  138.6219  166.5480 C.ar    1  UNL1        0.0578
      8 CL        137.5890  137.2730  166.8463 Cl      1  UNL1       -0.0822
      9 C         138.9444  139.3556  167.6050 C.ar    1  UNL1        0.0130
     10 C         139.5287  140.7045  167.3067 C.ar    1  UNL1        0.0212
     11 C         140.0929  143.6100  164.7958 C.ar    1  UNL1        0.0642
     12 C         141.4196  144.1240  164.3206 C.ar    1  UNL1        0.0198
     13 C         141.4839  145.0806  163.1670 C.ar    1  UNL1        0.0311
     14 C         140.2215  145.5233  162.4886 C.ar    1  UNL1        0.1402
     15 F         140.2857  146.4800  161.3350 F       1  UNL1       -0.2042
     16 C         138.8948  145.0094  162.9637 C.ar    1  UNL1        0.0311
     17 C         138.8305  144.0527  164.1173 C.ar    1  UNL1        0.0198
     18 C         142.2066  141.3571  169.9143 C.3     1  UNL1        0.0773
     19 C         140.7500  141.4444  169.5664 C.2     1  UNL1        0.1750
     20 O         139.7130  141.3181  170.6427 O.2     1  UNL1       -0.2913
@<TRIPOS>BOND
     1    18    19    1
     2    19    20    2
     3    19     1    1
     4     1     2   ar
     5     2     3   ar
     6     3    11    1
     7    11    12   ar
     8    12    13   ar
     9    13    14   ar
    10    14    15    1
    11    14    16   ar
    12    16    17   ar
    13     3     4   ar
    14     4     5   ar
    15     5     6   ar
    16     6     7   ar
    17     7     8    1
    18     7     9   ar
    19     9    10   ar
    20    10     1   ar
    21    17    11   ar
    22    10     4   ar
@<TRIPOS>MOLECULE
*****
 20 22 0 0 0
SMALL
GASTEIGER

@<TRIPOS>ATOM
      1 C         140.9703  141.7110  168.4385 C.ar    1  UNL1        0.0536
      2 C         140.3924  142.8424  167.6411 C.ar    1  UNL1        0.0829
      3 N         140.8229  142.6711  166.2144 N.ar    1  UNL1       -0.3048
      4 C         141.6668  141.4339  166.1301 C.ar    1  UNL1        0.0642
      5 C         142.3640  140.7710  164.9793 C.ar    1  UNL1        0.0184
      6 C         143.1523  139.5147  165.2031 C.ar    1  UNL1        0.0129
      7 C         143.2434  138.9212  166.5777 C.ar    1  UNL1        0.0578
      8 CL        144.0318  137.6648  166.8015 Cl      1  UNL1       -0.0822
      9 C         142.5462  139.5841  167.7285 C.ar    1  UNL1        0.0130
     10 C         141.7579  140.8405  167.5047 C.ar    1  UNL1        0.0212
     11 C         140.4712  143.5779  165.0724 C.ar    1  UNL1        0.0642
     12 C         141.5564  144.2766  164.3079 C.ar    1  UNL1        0.0198
     13 C         141.2047  145.1834  163.1659 C.ar    1  UNL1        0.0311
     14 C         139.7680  145.3916  162.7885 C.ar    1  UNL1        0.1402
     15 F         139.4163  146.2984  161.6465 F       1  UNL1       -0.2042
     16 C         138.6829  144.6929  163.5530 C.ar    1  UNL1        0.0311
     17 C         139.0346  143.7861  164.6950 C.ar    1  UNL1        0.0198
     18 C         141.9777  141.5499  170.8280 C.3     1  UNL1        0.0773
     19 C         140.7919  141.4890  169.9112 C.2     1  UNL1        0.1750
     20 O         139.4279  141.2061  170.4673 O.2     1  UNL1       -0.2913
@<TRIPOS>BOND
     1    18    19    1
     2    19    20    2
     3    19     1    1
     4     1     2   ar
     5     2     3   ar
     6     3    11    1
     7    11    12   ar
     8    12    13   ar
     9    13    14   ar
    10    14    15    1
    11    14    16   ar
    12    16    17   ar
    13     3     4   ar
    14     4     5   ar
    15     5     6   ar
    16     6     7   ar
    17     7     8    1
    18     7     9   ar
    19     9    10   ar
    20    10     1   ar
    21    17    11   ar
    22    10     4   ar
@<TRIPOS>MOLECULE
*****
 20 22 0 0 0
SMALL
GASTEIGER

@<TRIPOS>ATOM
      1 C         139.9046  144.1653  163.9428 C.ar    1  UNL1        0.0536
      2 C         139.3488  143.6680  165.2442 C.ar    1  UNL1        0.0829
      3 N         140.4316  142.9068  165.9500 N.ar    1  UNL1       -0.3048
      4 C         141.6567  142.9337  165.0848 C.ar    1  UNL1        0.0642
      5 C         143.0266  142.3505  165.2663 C.ar    1  UNL1        0.0184
      6 C         144.0709  142.5450  164.2072 C.ar    1  UNL1        0.0129
      7 C         143.7452  143.3228  162.9666 C.ar    1  UNL1        0.0578
      8 CL        144.7895  143.5173  161.9076 Cl      1  UNL1       -0.0822
      9 C         142.3752  143.9060  162.7851 C.ar    1  UNL1        0.0130
     10 C         141.3310  143.7115  163.8442 C.ar    1  UNL1        0.0212
     11 C         140.3107  142.2365  167.2864 C.ar    1  UNL1        0.0642
     12 C         140.0054  140.7699  167.3649 C.ar    1  UNL1        0.0198
     13 C         139.8844  140.0995  168.7014 C.ar    1  UNL1        0.0311
     14 C         140.0688  140.8956  169.9592 C.ar    1  UNL1        0.1402
     15 F         139.9479  140.2253  171.2956 F       1  UNL1       -0.2042
     16 C         140.3741  142.3621  169.8806 C.ar    1  UNL1        0.0311
     17 C         140.4951  143.0325  168.5442 C.ar    1  UNL1        0.0198
     18 C         139.8637  146.0832  162.1906 C.3     1  UNL1        0.0773
     19 C         139.1642  144.9743  162.9195 C.2     1  UNL1        0.1750
     20 O         137.7243  144.6746  162.6249 O.2     1  UNL1       -0.2913
@<TRIPOS>BOND
     1    18    19    1
     2    19    20    2
     3    19     1    1
     4     1     2   ar
     5     2     3   ar
     6     3    11    1
     7    11    12   ar
     8    12    13   ar
     9    13    14   ar
    10    14    15    1
    11    14    16   ar
    12    16    17   ar
    13     3     4   ar
    14     4     5   ar
    15     5     6   ar
    16     6     7   ar
    17     7     8    1
    18     7     9   ar
    19     9    10   ar
    20    10     1   ar
    21    17    11   ar
    22    10     4   ar
@<TRIPOS>MOLECULE
*****
 20 22 0 0 0
SMALL
GASTEIGER

@<TRIPOS>ATOM
      1 C         139.5848  142.7727  163.7415 C.ar    1  UNL1        0.0536
      2 C         140.2140  143.4065  164.9466 C.ar    1  UNL1        0.0829
      3 N         140.5119  142.3216  165.9386 N.ar    1  UNL1       -0.3048
      4 C         140.0668  141.0172  165.3466 C.ar    1  UNL1        0.0642
      5 C         140.1092  139.6116  165.8686 C.ar    1  UNL1        0.0184
      6 C         139.5786  138.4848  165.0327 C.ar    1  UNL1        0.0129
      7 C         139.0056  138.7637  163.6748 C.ar    1  UNL1        0.0578
      8 CL        138.4750  137.6368  162.8388 Cl      1  UNL1       -0.0822
      9 C         138.9632  140.1692  163.1528 C.ar    1  UNL1        0.0130
     10 C         139.4938  141.2960  163.9887 C.ar    1  UNL1        0.0212
     11 C         141.1440  142.5082  167.2861 C.ar    1  UNL1        0.0642
     12 C         142.5730  142.1085  167.5060 C.ar    1  UNL1        0.0198
     13 C         143.2051  142.2951  168.8535 C.ar    1  UNL1        0.0311
     14 C         142.4082  142.8814  169.9810 C.ar    1  UNL1        0.1402
     15 F         143.0403  143.0680  171.3285 F       1  UNL1       -0.2042
     16 C         140.9793  143.2811  169.7611 C.ar    1  UNL1        0.0311
     17 C         140.3472  143.0944  168.4136 C.ar    1  UNL1        0.0198
     18 C         140.0705  144.3950  161.7711 C.3     1  UNL1        0.0773
     19 C         139.1269  143.4896  162.5061 C.2     1  UNL1        0.1750
     20 O         137.7255  143.3014  162.0055 O.2     1  UNL1       -0.2913
@<TRIPOS>BOND
     1    18    19    1
     2    19    20    2
     3    19     1    1
     4     1     2   ar
     5     2     3   ar
     6     3    11    1
     7    11    12   ar
     8    12    13   ar
     9    13    14   ar
    10    14    15    1
    11    14    16   ar
    12    16    17   ar
    13     3     4   ar
    14     4     5   ar
    15     5     6   ar
    16     6     7   ar
    17     7     8    1
    18     7     9   ar
    19     9    10   ar
    20    10     1   ar
    21    17    11   ar
    22    10     4   ar
@<TRIPOS>MOLECULE
*****
 20 22 0 0 0
SMALL
GASTEIGER

@<TRIPOS>ATOM
      1 C         141.6709  139.7538  165.4999 C.ar    1  UNL1        0.0536
      2 C         141.4223  140.6819  164.3480 C.ar    1  UNL1        0.0829
      3 N         140.9196  141.9825  164.9009 N.ar    1  UNL1       -0.3048
      4 C         140.8576  141.8582  166.3945 C.ar    1  UNL1        0.0642
      5 C         140.4383  142.8214  167.4652 C.ar    1  UNL1        0.0184
      6 C         140.4833  142.4071  168.9061 C.ar    1  UNL1        0.0129
      7 C         140.9477  141.0296  169.2763 C.ar    1  UNL1        0.0578
      8 CL        140.9927  140.6153  170.7173 Cl      1  UNL1       -0.0822
      9 C         141.3670  140.0665  168.2056 C.ar    1  UNL1        0.0130
     10 C         141.3219  140.4808  166.7647 C.ar    1  UNL1        0.0212
     11 C         140.5448  143.1946  164.1008 C.ar    1  UNL1        0.0642
     12 C         141.6061  144.1559  163.6538 C.ar    1  UNL1        0.0198
     13 C         141.2312  145.3681  162.8536 C.ar    1  UNL1        0.0311
     14 C         139.7952  145.6190  162.5004 C.ar    1  UNL1        0.1402
     15 F         139.4203  146.8311  161.7003 F       1  UNL1       -0.2042
     16 C         138.7339  144.6577  162.9474 C.ar    1  UNL1        0.0311
     17 C         139.1088  143.4456  163.7475 C.ar    1  UNL1        0.0198
     18 C         141.3943  137.3149  164.6480 C.3     1  UNL1        0.0773
     19 C         142.1793  138.3458  165.4038 C.2     1  UNL1        0.1750
     20 O         143.4724  137.9687  166.0636 O.2     1  UNL1       -0.2913
@<TRIPOS>BOND
     1    18    19    1
     2    19    20    2
     3    19     1    1
     4     1     2   ar
     5     2     3   ar
     6     3    11    1
     7    11    12   ar
     8    12    13   ar
     9    13    14   ar
    10    14    15    1
    11    14    16   ar
    12    16    17   ar
    13     3     4   ar
    14     4     5   ar
    15     5     6   ar
    16     6     7   ar
    17     7     8    1
    18     7     9   ar
    19     9    10   ar
    20    10     1   ar
    21    17    11   ar
    22    10     4   ar
@<TRIPOS>MOLECULE
*****
 20 22 0 0 0
SMALL
GASTEIGER

@<TRIPOS>ATOM
      1 C         141.1227  141.7882  168.1382 C.ar    1  UNL1        0.0536
      2 C         142.1908  142.2972  167.2162 C.ar    1  UNL1        0.0829
      3 N         142.0397  141.5947  165.8995 N.ar    1  UNL1       -0.3048
      4 C         140.8783  140.6516  166.0077 C.ar    1  UNL1        0.0642
      5 C         140.2637  139.6994  165.0252 C.ar    1  UNL1        0.0184
      6 C         139.0822  138.8668  165.4263 C.ar    1  UNL1        0.0129
      7 C         138.5155  138.9864  166.8100 C.ar    1  UNL1        0.0578
      8 CL        137.3340  138.1537  167.2110 Cl      1  UNL1       -0.0822
      9 C         139.1302  139.9386  167.7925 C.ar    1  UNL1        0.0130
     10 C         140.3116  140.7712  167.3914 C.ar    1  UNL1        0.0212
     11 C         142.8992  141.7994  164.6872 C.ar    1  UNL1        0.0642
     12 C         143.9687  140.8033  164.3493 C.ar    1  UNL1        0.0198
     13 C         144.8282  141.0080  163.1370 C.ar    1  UNL1        0.0311
     14 C         144.6181  142.2087  162.2628 C.ar    1  UNL1        0.1402
     15 F         145.4776  142.4134  161.0506 F       1  UNL1       -0.2042
     16 C         143.5487  143.2047  162.6008 C.ar    1  UNL1        0.0311
     17 C         142.6892  143.0000  163.8130 C.ar    1  UNL1        0.0198
     18 C         140.4120  143.6064  169.8527 C.3     1  UNL1        0.0773
     19 C         140.9041  142.2203  169.5579 C.2     1  UNL1        0.1750
     20 O         141.1777  141.2666  170.6828 O.2     1  UNL1       -0.2913
@<TRIPOS>BOND
     1    18    19    1
     2    19    20    2
     3    19     1    1
     4     1     2   ar
     5     2     3   ar
     6     3    11    1
     7    11    12   ar
     8    12    13   ar
     9    13    14   ar
    10    14    15    1
    11    14    16   ar
    12    16    17   ar
    13     3     4   ar
    14     4     5   ar
    15     5     6   ar
    16     6     7   ar
    17     7     8    1
    18     7     9   ar
    19     9    10   ar
    20    10     1   ar
    21    17    11   ar
    22    10     4   ar
@<TRIPOS>MOLECULE
*****
 20 22 0 0 0
SMALL
GASTEIGER

@<TRIPOS>ATOM
      1 C         139.5632  139.9452  166.0996 C.ar    1  UNL1        0.0536
      2 C         140.1892  140.7890  165.0291 C.ar    1  UNL1        0.0829
      3 N         141.0918  141.7861  165.6934 N.ar    1  UNL1       -0.3048
      4 C         141.0236  141.5585  167.1745 C.ar    1  UNL1        0.0642
      5 C         141.6997  142.2402  168.3269 C.ar    1  UNL1        0.0184
      6 C         141.4310  141.7842  169.7304 C.ar    1  UNL1        0.0129
      7 C         140.4863  140.6464  169.9814 C.ar    1  UNL1        0.0578
      8 CL        140.2177  140.1904  171.3850 Cl      1  UNL1       -0.0822
      9 C         139.8102  139.9647  168.8290 C.ar    1  UNL1        0.0130
     10 C         140.0789  140.4207  167.4255 C.ar    1  UNL1        0.0212
     11 C         141.9176  142.8279  164.9986 C.ar    1  UNL1        0.0642
     12 C         141.2575  144.0423  164.4157 C.ar    1  UNL1        0.0198
     13 C         142.0833  145.0841  163.7209 C.ar    1  UNL1        0.0311
     14 C         143.5691  144.9116  163.6090 C.ar    1  UNL1        0.1402
     15 F         144.3949  145.9534  162.9143 F       1  UNL1       -0.2042
     16 C         144.2291  143.6972  164.1919 C.ar    1  UNL1        0.0311
     17 C         143.4033  142.6554  164.8867 C.ar    1  UNL1        0.0198
     18 C         137.6069  138.4652  166.9556 C.3     1  UNL1        0.0773
     19 C         138.5920  138.8229  165.8824 C.2     1  UNL1        0.1750
     20 O         138.6059  138.0581  164.5922 O.2     1  UNL1       -0.2913
@<TRIPOS>BOND
     1    18    19    1
     2    19    20    2
     3    19     1    1
     4     1     2   ar
     5     2     3   ar
     6     3    11    1
     7    11    12   ar
     8    12    13   ar
     9    13    14   ar
    10    14    15    1
    11    14    16   ar
    12    16    17   ar
    13     3     4   ar
    14     4     5   ar
    15     5     6   ar
    16     6     7   ar
    17     7     8    1
    18     7     9   ar
    19     9    10   ar
    20    10     1   ar
    21    17    11   ar
    22    10     4   ar
