@<TRIPOS>MOLECULE
*****
 28 30 0 0 0
SMALL
GASTEIGER

@<TRIPOS>ATOM
      1 C         141.0637  139.7536  165.9914 C.2     1  UNL1        0.2403
      2 O         141.2890  139.5705  167.4630 O.2     1  UNL1       -0.2734
      3 N         141.2036  141.1138  165.3747 N.am    1  UNL1       -0.2685
      4 C         141.0100  141.4490  163.9255 C.3     1  UNL1        0.1205
      5 C         141.2485  142.9200  163.7542 C.2     1  UNL1       -0.0024
      6 C         141.5894  143.4939  165.0974 C.2     1  UNL1       -0.0047
      7 C         141.5617  142.3777  166.0990 C.3     1  UNL1        0.1203
      8 C         141.1612  143.6831  162.4657 C.ar    1  UNL1        0.0271
      9 C         142.0304  143.2978  161.3055 C.ar    1  UNL1        0.0316
     10 C         141.9432  144.0609  160.0171 C.ar    1  UNL1        0.1403
     11 F         142.8124  143.6757  158.8569 F       1  UNL1       -0.2042
     12 C         140.9868  145.2093  159.8888 C.ar    1  UNL1        0.0319
     13 C         140.1176  145.5946  161.0490 C.ar    1  UNL1        0.0319
     14 C         140.2048  144.8315  162.3374 C.ar    1  UNL1        0.1400
     15 F         139.3356  145.2168  163.4976 F       1  UNL1       -0.2042
     16 C         141.8427  142.5032  167.5671 C.ar    1  UNL1       -0.0001
     17 C         140.7399  142.8772  168.5125 C.ar    1  UNL1       -0.0023
     18 C         141.0209  143.0027  169.9806 C.ar    1  UNL1       -0.0003
     19 C         142.4048  142.7541  170.5032 C.ar    1  UNL1       -0.0000
     20 C         143.5077  142.3801  169.5577 C.ar    1  UNL1       -0.0003
     21 C         143.2266  142.2546  168.0897 C.ar    1  UNL1       -0.0023
     22 C         140.6984  138.5765  165.1363 C.3     1  UNL1        0.1285
     23 N         141.7757  137.7361  164.5173 N.3     1  UNL1       -0.3150
     24 H         141.3508  136.9853  163.9731 H       1  UNL1        0.1192
     25 H         142.3588  137.3355  165.2520 H       1  UNL1        0.1192
     26 C         138.8134  137.7346  163.5592 C.3     1  UNL1        0.0019
     27 C         139.2559  138.2398  164.9004 C.3     1  UNL1        0.0231
     28 C         138.2559  138.4083  166.0057 C.3     1  UNL1        0.0019
@<TRIPOS>BOND
     1    26    27    1
     2    27    28    1
     3    27    22    1
     4    22    23    1
     5    22     1    1
     6     1     2    2
     7     1     3   am
     8     3     4    1
     9     4     5    1
    10     5     8    1
    11     8     9   ar
    12     9    10   ar
    13    10    11    1
    14    10    12   ar
    15    12    13   ar
    16    13    14   ar
    17    14    15    1
    18     5     6    2
    19     6     7    1
    20     7    16    1
    21    16    17   ar
    22    17    18   ar
    23    18    19   ar
    24    19    20   ar
    25    20    21   ar
    26     7     3    1
    27    21    16   ar
    28    14     8   ar
    29    23    24    1
    30    23    25    1
@<TRIPOS>MOLECULE
*****
 28 30 0 0 0
SMALL
GASTEIGER

@<TRIPOS>ATOM
      1 C         139.8625  139.9822  166.5578 C.2     1  UNL1        0.2403
      2 O         140.2564  139.8398  167.9982 O.2     1  UNL1       -0.2734
      3 N         140.2500  141.2127  165.7924 N.am    1  UNL1       -0.2685
      4 C         139.9288  141.4943  164.3546 C.3     1  UNL1        0.1205
      5 C         140.5070  142.8332  164.0040 C.2     1  UNL1       -0.0024
      6 C         141.1856  143.3792  165.2252 C.2     1  UNL1       -0.0047
      7 C         141.0268  142.3777  166.3305 C.3     1  UNL1        0.1203
      8 C         140.4216  143.5078  162.6669 C.ar    1  UNL1        0.0271
      9 C         139.8997  144.9104  162.5664 C.ar    1  UNL1        0.0316
     10 C         139.8143  145.5849  161.2294 C.ar    1  UNL1        0.1403
     11 F         139.2924  146.9876  161.1289 F       1  UNL1       -0.2042
     12 C         140.2508  144.8567  159.9928 C.ar    1  UNL1        0.0319
     13 C         140.7727  143.4541  160.0932 C.ar    1  UNL1        0.0319
     14 C         140.8581  142.7796  161.4303 C.ar    1  UNL1        0.1400
     15 F         141.3801  141.3769  161.5308 F       1  UNL1       -0.2042
     16 C         141.5524  142.5167  167.7285 C.ar    1  UNL1       -0.0001
     17 C         142.9629  142.1147  168.0429 C.ar    1  UNL1       -0.0023
     18 C         143.4886  142.2538  169.4409 C.ar    1  UNL1       -0.0003
     19 C         142.6037  142.7947  170.5245 C.ar    1  UNL1       -0.0000
     20 C         141.1931  143.1967  170.2101 C.ar    1  UNL1       -0.0003
     21 C         140.6675  143.0577  168.8122 C.ar    1  UNL1       -0.0023
     22 C         139.0811  138.8942  165.8829 C.3     1  UNL1        0.1285
     23 N         137.6873  138.5785  166.3386 N.3     1  UNL1       -0.3150
     24 H         137.3088  137.8183  165.7736 H       1  UNL1        0.1192
     25 H         137.0996  139.4055  166.2334 H       1  UNL1        0.1192
     26 C         138.8783  137.8020  163.5343 C.3     1  UNL1        0.0019
     27 C         139.6934  138.1219  164.7521 C.3     1  UNL1        0.0231
     28 C         141.1210  137.6696  164.8393 C.3     1  UNL1        0.0019
@<TRIPOS>BOND
     1    26    27    1
     2    27    28    1
     3    27    22    1
     4    22    23    1
     5    22     1    1
     6     1     2    2
     7     1     3   am
     8     3     4    1
     9     4     5    1
    10     5     8    1
    11     8     9   ar
    12     9    10   ar
    13    10    11    1
    14    10    12   ar
    15    12    13   ar
    16    13    14   ar
    17    14    15    1
    18     5     6    2
    19     6     7    1
    20     7    16    1
    21    16    17   ar
    22    17    18   ar
    23    18    19   ar
    24    19    20   ar
    25    20    21   ar
    26     7     3    1
    27    21    16   ar
    28    14     8   ar
    29    23    24    1
    30    23    25    1
@<TRIPOS>MOLECULE
*****
 28 30 0 0 0
SMALL
GASTEIGER

@<TRIPOS>ATOM
      1 C         139.5260  141.4568  163.1807 C.2     1  UNL1        0.2403
      2 O         140.0070  140.9694  161.8461 O.2     1  UNL1       -0.2734
      3 N         140.3543  141.2202  164.4087 N.am    1  UNL1       -0.2685
      4 C         140.0049  141.6469  165.8036 C.3     1  UNL1        0.1205
      5 C         141.1121  141.2057  166.7143 C.2     1  UNL1       -0.0024
      6 C         142.1458  140.5063  165.8823 C.2     1  UNL1       -0.0047
      7 C         141.6774  140.5152  164.4573 C.3     1  UNL1        0.1203
      8 C         141.1746  141.4254  168.1969 C.ar    1  UNL1        0.0271
      9 C         142.1524  142.4086  168.7688 C.ar    1  UNL1        0.0316
     10 C         142.2149  142.6283  170.2513 C.ar    1  UNL1        0.1403
     11 F         143.1928  143.6115  170.8233 F       1  UNL1       -0.2042
     12 C         141.2996  141.8647  171.1619 C.ar    1  UNL1        0.0319
     13 C         140.3217  140.8815  170.5899 C.ar    1  UNL1        0.0319
     14 C         140.2593  140.6619  169.1075 C.ar    1  UNL1        0.1400
     15 F         139.2814  139.6786  168.5355 F       1  UNL1       -0.2042
     16 C         142.4046  139.9231  163.2865 C.ar    1  UNL1       -0.0001
     17 C         142.1827  138.4871  162.9140 C.ar    1  UNL1       -0.0023
     18 C         142.9098  137.8951  161.7432 C.ar    1  UNL1       -0.0003
     19 C         143.8588  138.7389  160.9451 C.ar    1  UNL1       -0.0000
     20 C         144.0807  140.1750  161.3176 C.ar    1  UNL1       -0.0003
     21 C         143.3536  140.7669  162.4883 C.ar    1  UNL1       -0.0023
     22 C         138.2166  142.1808  163.2873 C.3     1  UNL1        0.1285
     23 N         136.9282  141.4230  163.1625 N.3     1  UNL1       -0.3150
     24 H         136.1437  142.0678  163.2593 H       1  UNL1        0.1192
     25 H         136.8782  140.7144  163.8944 H       1  UNL1        0.1192
     26 C         137.6304  144.2147  164.7937 C.3     1  UNL1        0.0019
     27 C         138.1958  143.6627  163.5188 C.3     1  UNL1        0.0231
     28 C         138.7403  144.5925  162.4753 C.3     1  UNL1        0.0019
@<TRIPOS>BOND
     1    26    27    1
     2    27    28    1
     3    27    22    1
     4    22    23    1
     5    22     1    1
     6     1     2    2
     7     1     3   am
     8     3     4    1
     9     4     5    1
    10     5     8    1
    11     8     9   ar
    12     9    10   ar
    13    10    11    1
    14    10    12   ar
    15    12    13   ar
    16    13    14   ar
    17    14    15    1
    18     5     6    2
    19     6     7    1
    20     7    16    1
    21    16    17   ar
    22    17    18   ar
    23    18    19   ar
    24    19    20   ar
    25    20    21   ar
    26     7     3    1
    27    21    16   ar
    28    14     8   ar
    29    23    24    1
    30    23    25    1
@<TRIPOS>MOLECULE
*****
 28 30 0 0 0
SMALL
GASTEIGER

@<TRIPOS>ATOM
      1 C         139.5354  142.8811  163.5077 C.2     1  UNL1        0.2403
      2 O         139.1269  142.3687  162.1584 O.2     1  UNL1       -0.2734
      3 N         139.9807  141.9215  164.5711 N.am    1  UNL1       -0.2685
      4 C         140.4161  142.2843  165.9599 C.3     1  UNL1        0.1205
      5 C         140.7733  141.0176  166.6796 C.2     1  UNL1       -0.0024
      6 C         140.5587  139.8719  165.7355 C.2     1  UNL1       -0.0047
      7 C         140.0689  140.4305  164.4325 C.3     1  UNL1        0.1203
      8 C         141.2597  140.9147  168.0948 C.ar    1  UNL1        0.0271
      9 C         142.6172  141.4370  168.4612 C.ar    1  UNL1        0.0316
     10 C         143.1035  141.3341  169.8764 C.ar    1  UNL1        0.1403
     11 F         144.4611  141.8564  170.2428 F       1  UNL1       -0.2042
     12 C         142.2323  140.7089  170.9253 C.ar    1  UNL1        0.0319
     13 C         140.8748  140.1866  170.5589 C.ar    1  UNL1        0.0319
     14 C         140.3885  140.2895  169.1437 C.ar    1  UNL1        0.1400
     15 F         139.0309  139.7672  168.7773 F       1  UNL1       -0.2042
     16 C         139.7272  139.6373  163.2060 C.ar    1  UNL1       -0.0001
     17 C         138.3308  139.1266  163.0080 C.ar    1  UNL1       -0.0023
     18 C         137.9891  138.3335  161.7815 C.ar    1  UNL1       -0.0003
     19 C         139.0438  138.0511  160.7531 C.ar    1  UNL1       -0.0000
     20 C         140.4403  138.5618  160.9511 C.ar    1  UNL1       -0.0003
     21 C         140.7819  139.3549  162.1775 C.ar    1  UNL1       -0.0023
     22 C         139.4986  144.3531  163.7937 C.3     1  UNL1        0.1285
     23 N         138.5172  144.8998  164.7876 N.3     1  UNL1       -0.3150
     24 H         138.6308  145.9111  164.8567 H       1  UNL1        0.1192
     25 H         138.6853  144.4757  165.6999 H       1  UNL1        0.1192
     26 C         141.8744  145.3698  163.5255 C.3     1  UNL1        0.0019
     27 C         140.4432  145.2785  163.0856 C.3     1  UNL1        0.0231
     28 C         139.9568  146.1125  161.9376 C.3     1  UNL1        0.0019
@<TRIPOS>BOND
     1    26    27    1
     2    27    28    1
     3    27    22    1
     4    22    23    1
     5    22     1    1
     6     1     2    2
     7     1     3   am
     8     3     4    1
     9     4     5    1
    10     5     8    1
    11     8     9   ar
    12     9    10   ar
    13    10    11    1
    14    10    12   ar
    15    12    13   ar
    16    13    14   ar
    17    14    15    1
    18     5     6    2
    19     6     7    1
    20     7    16    1
    21    16    17   ar
    22    17    18   ar
    23    18    19   ar
    24    19    20   ar
    25    20    21   ar
    26     7     3    1
    27    21    16   ar
    28    14     8   ar
    29    23    24    1
    30    23    25    1
@<TRIPOS>MOLECULE
*****
 28 30 0 0 0
SMALL
GASTEIGER

@<TRIPOS>ATOM
      1 C         139.5088  141.3717  163.1040 C.2     1  UNL1        0.2403
      2 O         139.9247  140.9649  161.7214 O.2     1  UNL1       -0.2734
      3 N         140.3657  141.0120  164.2814 N.am    1  UNL1       -0.2685
      4 C         140.0806  141.3486  165.7150 C.3     1  UNL1        0.1205
      5 C         141.1969  140.7971  166.5515 C.2     1  UNL1       -0.0024
      6 C         142.1720  140.1197  165.6348 C.2     1  UNL1       -0.0047
      7 C         141.6583  140.2525  164.2318 C.3     1  UNL1        0.1203
      8 C         141.3170  140.9043  168.0429 C.ar    1  UNL1        0.0271
      9 C         140.3924  140.1222  168.9279 C.ar    1  UNL1        0.0316
     10 C         140.5126  140.2293  170.4192 C.ar    1  UNL1        0.1403
     11 F         139.5879  139.4472  171.3043 F       1  UNL1       -0.2042
     12 C         141.5573  141.1186  171.0255 C.ar    1  UNL1        0.0319
     13 C         142.4820  141.9007  170.1405 C.ar    1  UNL1        0.0319
     14 C         142.3618  141.7936  168.6492 C.ar    1  UNL1        0.1400
     15 F         143.2865  142.5757  167.7641 F       1  UNL1       -0.2042
     16 C         142.3209  139.7194  162.9962 C.ar    1  UNL1       -0.0001
     17 C         142.0310  138.3225  162.5329 C.ar    1  UNL1       -0.0023
     18 C         142.6935  137.7893  161.2973 C.ar    1  UNL1       -0.0003
     19 C         143.6459  138.6532  160.5249 C.ar    1  UNL1       -0.0000
     20 C         143.9359  140.0502  160.9881 C.ar    1  UNL1       -0.0003
     21 C         143.2733  140.5832  162.2237 C.ar    1  UNL1       -0.0023
     22 C         138.2359  142.1383  163.3092 C.3     1  UNL1        0.1285
     23 N         136.9156  141.4285  163.2535 N.3     1  UNL1       -0.3150
     24 H         136.1627  142.0978  163.4134 H       1  UNL1        0.1192
     25 H         136.8872  140.7063  163.9733 H       1  UNL1        0.1192
     26 C         137.7657  144.1641  164.8664 C.3     1  UNL1        0.0019
     27 C         138.2832  143.6146  163.5701 C.3     1  UNL1        0.0231
     28 C         138.8481  144.5415  162.5348 C.3     1  UNL1        0.0019
@<TRIPOS>BOND
     1    26    27    1
     2    27    28    1
     3    27    22    1
     4    22    23    1
     5    22     1    1
     6     1     2    2
     7     1     3   am
     8     3     4    1
     9     4     5    1
    10     5     8    1
    11     8     9   ar
    12     9    10   ar
    13    10    11    1
    14    10    12   ar
    15    12    13   ar
    16    13    14   ar
    17    14    15    1
    18     5     6    2
    19     6     7    1
    20     7    16    1
    21    16    17   ar
    22    17    18   ar
    23    18    19   ar
    24    19    20   ar
    25    20    21   ar
    26     7     3    1
    27    21    16   ar
    28    14     8   ar
    29    23    24    1
    30    23    25    1
@<TRIPOS>MOLECULE
*****
 28 30 0 0 0
SMALL
GASTEIGER

@<TRIPOS>ATOM
      1 C         142.5725  140.1580  163.2934 C.2     1  UNL1        0.2403
      2 O         141.9507  139.6951  162.0093 O.2     1  UNL1       -0.2734
      3 N         141.7055  140.4684  164.4774 N.am    1  UNL1       -0.2685
      4 C         142.1817  140.9384  165.8199 C.3     1  UNL1        0.1205
      5 C         140.9805  141.1238  166.6990 C.2     1  UNL1       -0.0024
      6 C         139.7619  140.7685  165.8998 C.2     1  UNL1       -0.0047
      7 C         140.2099  140.3635  164.5268 C.3     1  UNL1        0.1203
      8 C         140.9954  141.5839  168.1267 C.ar    1  UNL1        0.0271
      9 C         140.5600  142.9776  168.4702 C.ar    1  UNL1        0.0316
     10 C         140.5749  143.4375  169.8978 C.ar    1  UNL1        0.1403
     11 F         140.1395  144.8313  170.2414 F       1  UNL1       -0.2042
     12 C         141.0251  142.5038  170.9820 C.ar    1  UNL1        0.0319
     13 C         141.4605  141.1101  170.6385 C.ar    1  UNL1        0.0319
     14 C         141.4456  140.6501  169.2109 C.ar    1  UNL1        0.1400
     15 F         141.8810  139.2564  168.8673 F       1  UNL1       -0.2042
     16 C         139.3189  139.9296  163.4008 C.ar    1  UNL1       -0.0001
     17 C         139.0089  138.4748  163.2076 C.ar    1  UNL1       -0.0023
     18 C         138.1178  138.0410  162.0816 C.ar    1  UNL1       -0.0003
     19 C         137.5368  139.0620  161.1489 C.ar    1  UNL1       -0.0000
     20 C         137.8468  140.5169  161.3421 C.ar    1  UNL1       -0.0003
     21 C         138.7378  140.9506  162.4681 C.ar    1  UNL1       -0.0023
     22 C         144.0614  140.3105  163.3936 C.3     1  UNL1        0.1285
     23 N         144.9147  139.1274  163.7431 N.3     1  UNL1       -0.3150
     24 H         145.8944  139.4100  163.7671 H       1  UNL1        0.1192
     25 H         144.7883  138.3979  163.0415 H       1  UNL1        0.1192
     26 C         145.1448  142.4910  164.2999 C.3     1  UNL1        0.0019
     27 C         144.6969  141.6461  163.1442 C.3     1  UNL1        0.0231
     28 C         144.8847  142.1368  161.7392 C.3     1  UNL1        0.0019
@<TRIPOS>BOND
     1    26    27    1
     2    27    28    1
     3    27    22    1
     4    22    23    1
     5    22     1    1
     6     1     2    2
     7     1     3   am
     8     3     4    1
     9     4     5    1
    10     5     8    1
    11     8     9   ar
    12     9    10   ar
    13    10    11    1
    14    10    12   ar
    15    12    13   ar
    16    13    14   ar
    17    14    15    1
    18     5     6    2
    19     6     7    1
    20     7    16    1
    21    16    17   ar
    22    17    18   ar
    23    18    19   ar
    24    19    20   ar
    25    20    21   ar
    26     7     3    1
    27    21    16   ar
    28    14     8   ar
    29    23    24    1
    30    23    25    1
@<TRIPOS>MOLECULE
*****
 28 30 0 0 0
SMALL
GASTEIGER

@<TRIPOS>ATOM
      1 C         141.0087  142.8673  163.1305 C.2     1  UNL1        0.2403
      2 O         140.6170  142.2413  161.8248 O.2     1  UNL1       -0.2734
      3 N         140.8061  142.1164  164.4130 N.am    1  UNL1       -0.2685
      4 C         141.1476  142.6105  165.7875 C.3     1  UNL1        0.1205
      5 C         140.7789  141.5390  166.7703 C.2     1  UNL1       -0.0024
      6 C         140.2095  140.3826  166.0032 C.2     1  UNL1       -0.0047
      7 C         140.2263  140.7394  164.5464 C.3     1  UNL1        0.1203
      8 C         140.9496  141.6112  168.2588 C.ar    1  UNL1        0.0271
      9 C         140.0214  142.4561  169.0801 C.ar    1  UNL1        0.0316
     10 C         140.1922  142.5283  170.5685 C.ar    1  UNL1        0.1403
     11 F         139.2640  143.3733  171.3899 F       1  UNL1       -0.2042
     12 C         141.2912  141.7556  171.2357 C.ar    1  UNL1        0.0319
     13 C         142.2194  140.9107  170.4145 C.ar    1  UNL1        0.0319
     14 C         142.0486  140.8385  168.9260 C.ar    1  UNL1        0.1400
     15 F         142.9768  139.9936  168.1047 F       1  UNL1       -0.2042
     16 C         139.7473  139.8716  163.4205 C.ar    1  UNL1       -0.0001
     17 C         138.3064  139.9088  163.0055 C.ar    1  UNL1       -0.0023
     18 C         137.8275  139.0410  161.8796 C.ar    1  UNL1       -0.0003
     19 C         138.7895  138.1360  161.1688 C.ar    1  UNL1       -0.0000
     20 C         140.2306  138.0987  161.5838 C.ar    1  UNL1       -0.0003
     21 C         140.7094  138.9665  162.7096 C.ar    1  UNL1       -0.0023
     22 C         141.6032  144.2443  163.1535 C.3     1  UNL1        0.1285
     23 N         140.7080  145.4471  163.1987 N.3     1  UNL1       -0.3150
     24 H         141.2765  146.2939  163.2093 H       1  UNL1        0.1192
     25 H         140.1341  145.4123  164.0413 H       1  UNL1        0.1192
     26 C         143.9159  143.7065  162.0990 C.3     1  UNL1        0.0019
     27 C         143.0929  144.4185  163.1313 C.3     1  UNL1        0.0231
     28 C         143.7595  145.3047  164.1414 C.3     1  UNL1        0.0019
@<TRIPOS>BOND
     1    26    27    1
     2    27    28    1
     3    27    22    1
     4    22    23    1
     5    22     1    1
     6     1     2    2
     7     1     3   am
     8     3     4    1
     9     4     5    1
    10     5     8    1
    11     8     9   ar
    12     9    10   ar
    13    10    11    1
    14    10    12   ar
    15    12    13   ar
    16    13    14   ar
    17    14    15    1
    18     5     6    2
    19     6     7    1
    20     7    16    1
    21    16    17   ar
    22    17    18   ar
    23    18    19   ar
    24    19    20   ar
    25    20    21   ar
    26     7     3    1
    27    21    16   ar
    28    14     8   ar
    29    23    24    1
    30    23    25    1
@<TRIPOS>MOLECULE
*****
 28 30 0 0 0
SMALL
GASTEIGER

@<TRIPOS>ATOM
      1 C         141.1986  142.9724  163.0247 C.2     1  UNL1        0.2403
      2 O         140.7069  142.3637  161.7449 O.2     1  UNL1       -0.2734
      3 N         141.0439  142.2275  164.3175 N.am    1  UNL1       -0.2685
      4 C         141.4845  142.7062  165.6690 C.3     1  UNL1        0.1205
      5 C         141.1344  141.6477  166.6725 C.2     1  UNL1       -0.0024
      6 C         140.4773  140.5148  165.9412 C.2     1  UNL1       -0.0047
      7 C         140.4213  140.8732  164.4857 C.3     1  UNL1        0.1203
      8 C         141.3955  141.7110  168.1483 C.ar    1  UNL1        0.0271
      9 C         142.2550  140.6707  168.8032 C.ar    1  UNL1        0.0316
     10 C         142.5161  140.7341  170.2789 C.ar    1  UNL1        0.1403
     11 F         143.3757  139.6938  170.9339 F       1  UNL1       -0.2042
     12 C         141.9176  141.8377  171.0997 C.ar    1  UNL1        0.0319
     13 C         141.0580  142.8780  170.4449 C.ar    1  UNL1        0.0319
     14 C         140.7969  142.8146  168.9692 C.ar    1  UNL1        0.1400
     15 F         139.9373  143.8550  168.3142 F       1  UNL1       -0.2042
     16 C         139.8442  140.0259  163.3907 C.ar    1  UNL1       -0.0001
     17 C         140.7115  139.0343  162.6734 C.ar    1  UNL1       -0.0023
     18 C         140.1344  138.1870  161.5783 C.ar    1  UNL1       -0.0003
     19 C         138.6900  138.3314  161.2006 C.ar    1  UNL1       -0.0000
     20 C         137.8226  139.3231  161.9179 C.ar    1  UNL1       -0.0003
     21 C         138.3998  140.1702  163.0129 C.ar    1  UNL1       -0.0023
     22 C         141.8450  144.3259  163.0117 C.3     1  UNL1        0.1285
     23 N         141.0036  145.5574  162.8523 N.3     1  UNL1       -0.3150
     24 H         141.6028  146.3827  162.8655 H       1  UNL1        0.1192
     25 H         140.3324  145.6122  163.6184 H       1  UNL1        0.1192
     26 C         144.2416  143.7285  162.2060 C.3     1  UNL1        0.0019
     27 C         143.3328  144.4478  163.1581 C.3     1  UNL1        0.0231
     28 C         143.9118  145.2892  164.2568 C.3     1  UNL1        0.0019
@<TRIPOS>BOND
     1    26    27    1
     2    27    28    1
     3    27    22    1
     4    22    23    1
     5    22     1    1
     6     1     2    2
     7     1     3   am
     8     3     4    1
     9     4     5    1
    10     5     8    1
    11     8     9   ar
    12     9    10   ar
    13    10    11    1
    14    10    12   ar
    15    12    13   ar
    16    13    14   ar
    17    14    15    1
    18     5     6    2
    19     6     7    1
    20     7    16    1
    21    16    17   ar
    22    17    18   ar
    23    18    19   ar
    24    19    20   ar
    25    20    21   ar
    26     7     3    1
    27    21    16   ar
    28    14     8   ar
    29    23    24    1
    30    23    25    1
@<TRIPOS>MOLECULE
*****
 28 30 0 0 0
SMALL
GASTEIGER

@<TRIPOS>ATOM
      1 C         141.2532  139.4137  162.2230 C.2     1  UNL1        0.2403
      2 O         141.5302  139.5902  160.7594 O.2     1  UNL1       -0.2734
      3 N         141.6099  140.5030  163.1905 N.am    1  UNL1       -0.2685
      4 C         141.3942  140.4695  164.6746 C.3     1  UNL1        0.1205
      5 C         141.8959  141.7629  165.2452 C.2     1  UNL1       -0.0024
      6 C         142.4217  142.5956  164.1138 C.2     1  UNL1       -0.0047
      7 C         142.2450  141.8170  162.8440 C.3     1  UNL1        0.1203
      8 C         141.8754  142.1546  166.6930 C.ar    1  UNL1        0.0271
      9 C         143.1163  142.0183  167.5246 C.ar    1  UNL1        0.0316
     10 C         143.0957  142.4100  168.9723 C.ar    1  UNL1        0.1403
     11 F         144.3367  142.2737  169.8039 F       1  UNL1       -0.2042
     12 C         141.8342  142.9381  169.5886 C.ar    1  UNL1        0.0319
     13 C         140.5933  143.0744  168.7571 C.ar    1  UNL1        0.0319
     14 C         140.6139  142.6827  167.3093 C.ar    1  UNL1        0.1400
     15 F         139.3729  142.8191  166.4777 F       1  UNL1       -0.2042
     16 C         142.6348  142.2724  161.4690 C.ar    1  UNL1       -0.0001
     17 C         144.0009  141.9593  160.9344 C.ar    1  UNL1       -0.0023
     18 C         144.3908  142.4147  159.5594 C.ar    1  UNL1       -0.0003
     19 C         143.4145  143.1832  158.7191 C.ar    1  UNL1       -0.0000
     20 C         142.0484  143.4964  159.2536 C.ar    1  UNL1       -0.0003
     21 C         141.6586  143.0410  160.6285 C.ar    1  UNL1       -0.0023
     22 C         140.6195  138.1478  162.7190 C.3     1  UNL1        0.1285
     23 N         141.4323  136.8910  162.8182 N.3     1  UNL1       -0.3150
     24 H         140.8465  136.1343  163.1712 H       1  UNL1        0.1192
     25 H         142.2143  137.0413  163.4556 H       1  UNL1        0.1192
     26 C         138.7893  137.9044  164.5469 C.3     1  UNL1        0.0019
     27 C         139.1730  138.1388  163.1159 C.3     1  UNL1        0.0231
     28 C         138.1101  138.3642  162.0817 C.3     1  UNL1        0.0019
@<TRIPOS>BOND
     1    26    27    1
     2    27    28    1
     3    27    22    1
     4    22    23    1
     5    22     1    1
     6     1     2    2
     7     1     3   am
     8     3     4    1
     9     4     5    1
    10     5     8    1
    11     8     9   ar
    12     9    10   ar
    13    10    11    1
    14    10    12   ar
    15    12    13   ar
    16    13    14   ar
    17    14    15    1
    18     5     6    2
    19     6     7    1
    20     7    16    1
    21    16    17   ar
    22    17    18   ar
    23    18    19   ar
    24    19    20   ar
    25    20    21   ar
    26     7     3    1
    27    21    16   ar
    28    14     8   ar
    29    23    24    1
    30    23    25    1
