@<TRIPOS>MOLECULE
*****
 42 48 0 0 0
SMALL
GASTEIGER

@<TRIPOS>ATOM
      1 C         138.2041  142.4702  159.0776 C.3     1  UNL1        0.0730
      2 N         138.3995  141.6305  160.3051 N.3     1  UNL1       -0.2720
      3 C         138.1062  140.1679  160.1464 C.3     1  UNL1        0.0768
      4 C         138.2033  139.0779  161.1724 C.3     1  UNL1        0.0434
      5 C         138.6176  139.1812  162.6102 C.ar    1  UNL1       -0.0231
      6 C         138.5770  137.8445  163.2896 C.ar    1  UNL1       -0.0013
      7 C         138.9560  137.7266  164.7361 C.ar    1  UNL1        0.0388
      8 C         139.3756  138.9453  165.5033 C.ar    1  UNL1        0.1645
      9 O         139.8016  139.1367  166.9287 O.2     1  UNL1       -0.4333
     10 C         140.1055  140.5917  167.1304 C.ar    1  UNL1        0.2474
     11 N         139.8673  141.2996  165.8295 N.ar    1  UNL1       -0.2073
     12 C         139.4163  140.2821  164.8239 C.ar    1  UNL1        0.1147
     13 C         139.0373  140.4000  163.3774 C.ar    1  UNL1       -0.0039
     14 C         139.1461  141.8165  162.8961 C.3     1  UNL1        0.0450
     15 C         138.8623  142.3640  161.5287 C.3     1  UNL1        0.0769
     16 C         140.5666  141.2273  168.4084 C.ar    1  UNL1        0.1325
     17 C         141.7843  142.0870  168.5763 C.ar    1  UNL1        0.0399
     18 C         141.8613  142.5059  170.0146 C.ar    1  UNL1        0.0806
     19 C         142.9221  143.3733  170.6247 C.3     1  UNL1        0.0540
     20 N         140.6912  141.9051  170.7355 N.ar    1  UNL1       -0.1735
     21 N         139.8910  141.1149  169.7429 N.ar    1  UNL1       -0.2446
     22 C         138.6356  140.3471  170.0336 C.3     1  UNL1        0.1539
     23 C         139.3453  142.6890  158.1290 C.3     1  UNL1        0.0294
     24 C         139.6449  144.0684  157.6216 C.3     1  UNL1        0.0666
     25 S         141.0170  144.6494  157.7939 S.3     1  UNL1       -0.0756
     26 C         143.0111  143.5184  160.9260 C.ar    1  UNL1        0.1669
     27 N         143.7809  142.8400  159.8317 N.ar    1  UNL1       -0.1282
     28 N         143.1276  143.1812  158.5253 N.ar    1  UNL1       -0.1221
     29 C         141.9540  144.0703  158.8121 C.ar    1  UNL1        0.1932
     30 N         141.8821  144.2787  160.2958 N.ar    1  UNL1       -0.2884
     31 C         140.8604  145.1028  161.0219 C.3     1  UNL1        0.1340
     32 C         142.8305  138.2301  165.3138 C.3     1  UNL1        0.0521
     33 C         142.9521  139.5348  164.5835 C.ar    1  UNL1        0.0593
     34 C         142.6464  139.6045  163.1166 C.ar    1  UNL1        0.0147
     35 C         142.7680  140.9091  162.3865 C.ar    1  UNL1        0.0028
     36 C         143.1952  142.1440  163.1231 C.ar    1  UNL1        0.0206
     37 C         143.3167  143.4486  162.3928 C.ar    1  UNL1        0.0374
     38 C         143.7439  144.6834  163.1296 C.ar    1  UNL1        0.0031
     39 C         144.0496  144.6136  164.5964 C.ar    1  UNL1        0.0016
     40 C         143.9280  143.3091  165.3266 C.ar    1  UNL1        0.0191
     41 C         143.5008  142.0743  164.5900 C.ar    1  UNL1        0.0810
     42 N         143.3793  140.7696  165.3202 N.ar    1  UNL1       -0.2497
@<TRIPOS>BOND
     1    32    33    1
     2    33    34   ar
     3    34    35   ar
     4    35    36   ar
     5    36    37   ar
     6    37    26    1
     7    26    27   ar
     8    27    28   ar
     9    28    29   ar
    10    29    25    1
    11    25    24    1
    12    24    23    1
    13    23     1    1
    14     1     2    1
    15     2     3    1
    16     3     4    1
    17     4     5    1
    18     5     6   ar
    19     6     7   ar
    20     7     8   ar
    21     8     9   ar
    22     9    10   ar
    23    10    16    1
    24    16    17   ar
    25    17    18   ar
    26    18    19    1
    27    18    20   ar
    28    20    21   ar
    29    21    22    1
    30    10    11   ar
    31    11    12   ar
    32    12    13   ar
    33    13    14    1
    34    14    15    1
    35    29    30   ar
    36    30    31    1
    37    37    38   ar
    38    38    39   ar
    39    39    40   ar
    40    40    41   ar
    41    41    42   ar
    42    42    33   ar
    43    41    36   ar
    44    30    26   ar
    45    15     2    1
    46    13     5   ar
    47    12     8   ar
    48    21    16   ar
@<TRIPOS>MOLECULE
*****
 42 48 0 0 0
SMALL
GASTEIGER

@<TRIPOS>ATOM
      1 C         140.8651  143.1962  156.4178 C.3     1  UNL1        0.0730
      2 N         140.8900  143.4908  157.8884 N.3     1  UNL1       -0.2720
      3 C         140.4852  144.8810  158.2805 C.3     1  UNL1        0.0768
      4 C         140.4069  145.4800  159.6536 C.3     1  UNL1        0.0434
      5 C         140.7139  144.8369  160.9733 C.ar    1  UNL1       -0.0231
      6 C         140.5049  145.7926  162.1105 C.ar    1  UNL1       -0.0013
      7 C         140.7571  145.3473  163.5205 C.ar    1  UNL1        0.0388
      8 C         141.2184  143.9463  163.7935 C.ar    1  UNL1        0.1645
      9 O         141.5455  143.2279  165.0689 O.2     1  UNL1       -0.4333
     10 C         141.9568  141.8281  164.7201 C.ar    1  UNL1        0.2474
     11 N         141.8838  141.6815  163.2290 N.ar    1  UNL1       -0.2073
     12 C         141.4274  142.9906  162.6563 C.ar    1  UNL1        0.1147
     13 C         141.1752  143.4359  161.2463 C.ar    1  UNL1       -0.0039
     14 C         141.4433  142.3320  160.2668 C.3     1  UNL1        0.0450
     15 C         141.3164  142.3565  158.7723 C.3     1  UNL1        0.0769
     16 C         142.3688  140.7622  165.6917 C.ar    1  UNL1        0.1325
     17 C         142.0578  140.7388  167.1589 C.ar    1  UNL1        0.0399
     18 C         142.6609  139.4946  167.7407 C.ar    1  UNL1        0.0806
     19 C         142.5923  139.0704  169.1779 C.3     1  UNL1        0.0540
     20 N         143.3444  138.7492  166.6331 N.ar    1  UNL1       -0.1735
     21 N         143.1639  139.5325  165.3667 N.ar    1  UNL1       -0.2446
     22 C         143.6867  139.1529  164.0130 C.3     1  UNL1        0.1539
     23 C         141.2886  141.8477  155.9158 C.3     1  UNL1        0.0294
     24 C         140.2602  140.8764  155.4164 C.3     1  UNL1        0.0666
     25 S         139.9474  139.6419  156.2089 S.3     1  UNL1       -0.0756
     26 C         138.5088  139.6506  159.8140 C.ar    1  UNL1        0.1669
     27 N         137.3345  140.1603  159.0320 N.ar    1  UNL1       -0.1282
     28 N         137.7305  140.2191  157.5865 N.ar    1  UNL1       -0.1221
     29 C         139.1495  139.7457  157.4749 C.ar    1  UNL1        0.1932
     30 N         139.6304  139.3944  158.8516 N.ar    1  UNL1       -0.2884
     31 C         140.9938  138.8775  159.2040 C.3     1  UNL1        0.1340
     32 C         137.6193  144.0407  165.0280 C.3     1  UNL1        0.0521
     33 C         137.8529  142.8893  164.0954 C.ar    1  UNL1        0.0593
     34 C         137.8082  143.1049  162.6116 C.ar    1  UNL1        0.0147
     35 C         138.0417  141.9534  161.6791 C.ar    1  UNL1        0.0028
     36 C         138.3199  140.5864  162.2302 C.ar    1  UNL1        0.0206
     37 C         138.5535  139.4350  161.2976 C.ar    1  UNL1        0.0374
     38 C         138.8317  138.0680  161.8489 C.ar    1  UNL1        0.0031
     39 C         138.8764  137.8524  163.3326 C.ar    1  UNL1        0.0016
     40 C         138.6429  139.0037  164.2651 C.ar    1  UNL1        0.0191
     41 C         138.3646  140.3708  163.7140 C.ar    1  UNL1        0.0810
     42 N         138.1311  141.5222  164.6466 N.ar    1  UNL1       -0.2497
@<TRIPOS>BOND
     1    32    33    1
     2    33    34   ar
     3    34    35   ar
     4    35    36   ar
     5    36    37   ar
     6    37    26    1
     7    26    27   ar
     8    27    28   ar
     9    28    29   ar
    10    29    25    1
    11    25    24    1
    12    24    23    1
    13    23     1    1
    14     1     2    1
    15     2     3    1
    16     3     4    1
    17     4     5    1
    18     5     6   ar
    19     6     7   ar
    20     7     8   ar
    21     8     9   ar
    22     9    10   ar
    23    10    16    1
    24    16    17   ar
    25    17    18   ar
    26    18    19    1
    27    18    20   ar
    28    20    21   ar
    29    21    22    1
    30    10    11   ar
    31    11    12   ar
    32    12    13   ar
    33    13    14    1
    34    14    15    1
    35    29    30   ar
    36    30    31    1
    37    37    38   ar
    38    38    39   ar
    39    39    40   ar
    40    40    41   ar
    41    41    42   ar
    42    42    33   ar
    43    41    36   ar
    44    30    26   ar
    45    15     2    1
    46    13     5   ar
    47    12     8   ar
    48    21    16   ar
@<TRIPOS>MOLECULE
*****
 42 48 0 0 0
SMALL
GASTEIGER

@<TRIPOS>ATOM
      1 C         143.7605  143.0679  158.2028 C.3     1  UNL1        0.0730
      2 N         143.4765  142.1606  159.3630 N.3     1  UNL1       -0.2720
      3 C         143.5225  140.6909  159.0663 C.3     1  UNL1        0.0768
      4 C         143.2874  139.5405  159.9998 C.3     1  UNL1        0.0434
      5 C         142.9482  139.5757  161.4604 C.ar    1  UNL1       -0.0231
      6 C         142.7962  138.1928  162.0212 C.ar    1  UNL1       -0.0013
      7 C         142.4562  138.0041  163.4699 C.ar    1  UNL1        0.0388
      8 C         142.2683  139.1983  164.3580 C.ar    1  UNL1        0.1645
      9 O         141.9315  139.3231  165.8143 O.2     1  UNL1       -0.4333
     10 C         141.8753  140.7831  166.1537 C.ar    1  UNL1        0.2474
     11 N         142.1775  141.5607  164.9070 N.ar    1  UNL1       -0.2073
     12 C         142.4203  140.5812  163.7972 C.ar    1  UNL1        0.1147
     13 C         142.7603  140.7699  162.3485 C.ar    1  UNL1       -0.0039
     14 C         142.8652  142.2239  161.9951 C.3     1  UNL1        0.0450
     15 C         143.1839  142.8428  160.6664 C.3     1  UNL1        0.0769
     16 C         141.5706  141.3637  167.5027 C.ar    1  UNL1        0.1325
     17 C         140.9184  142.6887  167.7655 C.ar    1  UNL1        0.0399
     18 C         140.8092  142.8651  169.2511 C.ar    1  UNL1        0.0806
     19 C         140.2189  144.0496  169.9573 C.3     1  UNL1        0.0540
     20 N         141.3939  141.6492  169.9064 N.ar    1  UNL1       -0.1735
     21 N         141.8644  140.7213  168.8259 N.ar    1  UNL1       -0.2446
     22 C         142.5147  139.3854  169.0324 C.3     1  UNL1        0.1539
     23 C         142.6379  143.5390  157.3267 C.3     1  UNL1        0.0294
     24 C         142.2982  144.9988  157.2628 C.3     1  UNL1        0.0666
     25 S         140.9897  145.4889  157.8083 S.3     1  UNL1       -0.0756
     26 C         139.0857  143.4973  160.5422 C.ar    1  UNL1        0.1669
     27 N         138.5556  142.8558  159.2941 N.ar    1  UNL1       -0.1282
     28 N         139.2043  143.5239  158.1181 N.ar    1  UNL1       -0.1221
     29 C         140.1354  144.5781  158.6393 C.ar    1  UNL1        0.1932
     30 N         140.0621  144.5616  160.1374 N.ar    1  UNL1       -0.2884
     31 C         140.8303  145.4531  161.0676 C.3     1  UNL1        0.1340
     32 C         138.9252  137.4166  163.7438 C.3     1  UNL1        0.0521
     33 C         138.8704  138.8468  163.2948 C.ar    1  UNL1        0.0593
     34 C         139.2500  139.2066  161.8889 C.ar    1  UNL1        0.0147
     35 C         139.1952  140.6368  161.4400 C.ar    1  UNL1        0.0028
     36 C         138.7609  141.7072  162.3969 C.ar    1  UNL1        0.0206
     37 C         138.7062  143.1375  161.9479 C.ar    1  UNL1        0.0374
     38 C         138.2719  144.2077  162.9049 C.ar    1  UNL1        0.0031
     39 C         137.8923  143.8479  164.3108 C.ar    1  UNL1        0.0016
     40 C         137.9470  142.4178  164.7597 C.ar    1  UNL1        0.0191
     41 C         138.3814  141.3474  163.8028 C.ar    1  UNL1        0.0810
     42 N         138.4361  139.9172  164.2518 N.ar    1  UNL1       -0.2497
@<TRIPOS>BOND
     1    32    33    1
     2    33    34   ar
     3    34    35   ar
     4    35    36   ar
     5    36    37   ar
     6    37    26    1
     7    26    27   ar
     8    27    28   ar
     9    28    29   ar
    10    29    25    1
    11    25    24    1
    12    24    23    1
    13    23     1    1
    14     1     2    1
    15     2     3    1
    16     3     4    1
    17     4     5    1
    18     5     6   ar
    19     6     7   ar
    20     7     8   ar
    21     8     9   ar
    22     9    10   ar
    23    10    16    1
    24    16    17   ar
    25    17    18   ar
    26    18    19    1
    27    18    20   ar
    28    20    21   ar
    29    21    22    1
    30    10    11   ar
    31    11    12   ar
    32    12    13   ar
    33    13    14    1
    34    14    15    1
    35    29    30   ar
    36    30    31    1
    37    37    38   ar
    38    38    39   ar
    39    39    40   ar
    40    40    41   ar
    41    41    42   ar
    42    42    33   ar
    43    41    36   ar
    44    30    26   ar
    45    15     2    1
    46    13     5   ar
    47    12     8   ar
    48    21    16   ar
@<TRIPOS>MOLECULE
*****
 42 48 0 0 0
SMALL
GASTEIGER

@<TRIPOS>ATOM
      1 C         143.7077  143.3342  158.5532 C.3     1  UNL1        0.0730
      2 N         142.8642  143.5257  159.7787 N.3     1  UNL1       -0.2720
      3 C         141.8069  144.5854  159.6819 C.3     1  UNL1        0.0768
      4 C         140.8137  145.0133  160.7214 C.3     1  UNL1        0.0434
      5 C         140.6325  144.4873  162.1143 C.ar    1  UNL1       -0.0231
      6 C         139.5183  145.1951  162.8268 C.ar    1  UNL1       -0.0013
      7 C         139.1714  144.8191  164.2369 C.ar    1  UNL1        0.0388
      8 C         139.9386  143.7352  164.9345 C.ar    1  UNL1        0.1645
      9 O         139.8251  143.1523  166.3119 O.2     1  UNL1       -0.4333
     10 C         140.8691  142.0842  166.4508 C.ar    1  UNL1        0.2474
     11 N         141.6279  142.0070  165.1591 N.ar    1  UNL1       -0.2073
     12 C         141.0528  143.0274  164.2220 C.ar    1  UNL1        0.1147
     13 C         141.3997  143.4034  162.8120 C.ar    1  UNL1       -0.0039
     14 C         142.5376  142.5779  162.2888 C.3     1  UNL1        0.0450
     15 C         143.1893  142.6324  160.9388 C.3     1  UNL1        0.0769
     16 C         141.1117  141.2413  167.6675 C.ar    1  UNL1        0.1325
     17 C         142.2711  141.3680  168.6109 C.ar    1  UNL1        0.0399
     18 C         142.1136  140.3287  169.6810 C.ar    1  UNL1        0.0806
     19 C         143.0486  140.0988  170.8312 C.3     1  UNL1        0.0540
     20 N         140.8569  139.5598  169.3990 N.ar    1  UNL1       -0.1735
     21 N         140.2378  140.1238  168.1547 N.ar    1  UNL1       -0.2446
     22 C         138.9676  139.6530  167.5104 C.3     1  UNL1        0.1539
     23 C         143.9388  141.9555  158.0097 C.3     1  UNL1        0.0294
     24 C         143.3334  141.5557  156.6967 C.3     1  UNL1        0.0666
     25 S         142.5432  140.2851  156.5911 S.3     1  UNL1       -0.0756
     26 C         141.5180  138.5316  159.8986 C.ar    1  UNL1        0.1669
     27 N         142.6138  137.6268  159.4184 N.ar    1  UNL1       -0.1282
     28 N         143.1312  138.1736  158.1210 N.ar    1  UNL1       -0.1221
     29 C         142.3552  139.4163  157.7993 C.ar    1  UNL1        0.1932
     30 N         141.3582  139.6375  158.8979 N.ar    1  UNL1       -0.2884
     31 C         140.3741  140.7666  158.9812 C.3     1  UNL1        0.1340
     32 C         143.4498  138.6513  166.4944 C.3     1  UNL1        0.0521
     33 C         142.7678  138.5786  165.1603 C.ar    1  UNL1        0.0593
     34 C         143.5640  138.7498  163.9006 C.ar    1  UNL1        0.0147
     35 C         142.8820  138.6770  162.5666 C.ar    1  UNL1        0.0028
     36 C         141.4038  138.4332  162.4923 C.ar    1  UNL1        0.0206
     37 C         140.7218  138.3605  161.1582 C.ar    1  UNL1        0.0374
     38 C         139.2437  138.1167  161.0840 C.ar    1  UNL1        0.0031
     39 C         138.4475  137.9456  162.3437 C.ar    1  UNL1        0.0016
     40 C         139.1294  138.0183  163.6776 C.ar    1  UNL1        0.0191
     41 C         140.6076  138.2621  163.7520 C.ar    1  UNL1        0.0810
     42 N         141.2896  138.3348  165.0860 N.ar    1  UNL1       -0.2497
@<TRIPOS>BOND
     1    32    33    1
     2    33    34   ar
     3    34    35   ar
     4    35    36   ar
     5    36    37   ar
     6    37    26    1
     7    26    27   ar
     8    27    28   ar
     9    28    29   ar
    10    29    25    1
    11    25    24    1
    12    24    23    1
    13    23     1    1
    14     1     2    1
    15     2     3    1
    16     3     4    1
    17     4     5    1
    18     5     6   ar
    19     6     7   ar
    20     7     8   ar
    21     8     9   ar
    22     9    10   ar
    23    10    16    1
    24    16    17   ar
    25    17    18   ar
    26    18    19    1
    27    18    20   ar
    28    20    21   ar
    29    21    22    1
    30    10    11   ar
    31    11    12   ar
    32    12    13   ar
    33    13    14    1
    34    14    15    1
    35    29    30   ar
    36    30    31    1
    37    37    38   ar
    38    38    39   ar
    39    39    40   ar
    40    40    41   ar
    41    41    42   ar
    42    42    33   ar
    43    41    36   ar
    44    30    26   ar
    45    15     2    1
    46    13     5   ar
    47    12     8   ar
    48    21    16   ar
@<TRIPOS>MOLECULE
*****
 42 48 0 0 0
SMALL
GASTEIGER

@<TRIPOS>ATOM
      1 C         142.7227  138.0901  159.0056 C.3     1  UNL1        0.0730
      2 N         143.0072  138.9503  160.2010 N.3     1  UNL1       -0.2720
      3 C         144.0695  139.9929  160.0144 C.3     1  UNL1        0.0768
      4 C         144.5788  140.9969  161.0058 C.3     1  UNL1        0.0434
      5 C         144.1517  141.2063  162.4282 C.ar    1  UNL1       -0.0231
      6 C         144.9191  142.3228  163.0722 C.ar    1  UNL1       -0.0013
      7 C         144.6446  142.6964  164.4987 C.ar    1  UNL1        0.0388
      8 C         143.6026  141.9536  165.2814 C.ar    1  UNL1        0.1645
      9 O         143.1169  142.0959  166.6934 O.2     1  UNL1       -0.4333
     10 C         142.0493  141.0673  166.9222 C.ar    1  UNL1        0.2474
     11 N         141.8751  140.2894  165.6516 N.ar    1  UNL1       -0.2073
     12 C         142.8352  140.8371  164.6375 C.ar    1  UNL1        0.1147
     13 C         143.1097  140.4635  163.2109 C.ar    1  UNL1       -0.0039
     14 C         142.2376  139.3278  162.7643 C.3     1  UNL1        0.0450
     15 C         142.1920  138.6544  161.4247 C.3     1  UNL1        0.0769
     16 C         141.2892  140.8542  168.1976 C.ar    1  UNL1        0.1325
     17 C         139.8337  140.5088  168.3094 C.ar    1  UNL1        0.0399
     18 C         139.4961  140.3901  169.7661 C.ar    1  UNL1        0.0806
     19 C         138.1483  140.0578  170.3345 C.3     1  UNL1        0.0540
     20 N         140.7428  140.6621  170.5546 N.ar    1  UNL1       -0.1735
     21 N         141.8509  140.9489  169.5852 N.ar    1  UNL1       -0.2446
     22 C         143.2716  141.2734  169.9410 C.3     1  UNL1        0.1539
     23 C         142.8582  138.6576  157.6238 C.3     1  UNL1        0.0294
     24 C         141.6323  138.9638  156.8152 C.3     1  UNL1        0.0666
     25 S         140.8853  140.2447  157.0413 S.3     1  UNL1       -0.0756
     26 C         138.6615  140.8598  160.1625 C.ar    1  UNL1        0.1669
     27 N         137.7536  140.0112  159.3224 N.ar    1  UNL1       -0.1282
     28 N         138.4762  139.6775  158.0511 N.ar    1  UNL1       -0.1221
     29 C         139.8306  140.3199  158.1053 C.ar    1  UNL1        0.1932
     30 N         139.9451  141.0506  159.4102 N.ar    1  UNL1       -0.2884
     31 C         141.1344  141.8345  159.8804 C.3     1  UNL1        0.1340
     32 C         138.3654  137.8325  166.3268 C.3     1  UNL1        0.0521
     33 C         138.3595  138.7292  165.1243 C.ar    1  UNL1        0.0593
     34 C         138.6792  138.1696  163.7698 C.ar    1  UNL1        0.0147
     35 C         138.6733  139.0664  162.5674 C.ar    1  UNL1        0.0028
     36 C         138.3477  140.5227  162.7194 C.ar    1  UNL1        0.0206
     37 C         138.3418  141.4194  161.5169 C.ar    1  UNL1        0.0374
     38 C         138.0162  142.8757  161.6691 C.ar    1  UNL1        0.0031
     39 C         137.6965  143.4353  163.0236 C.ar    1  UNL1        0.0016
     40 C         137.7024  142.5387  164.2259 C.ar    1  UNL1        0.0191
     41 C         138.0280  141.0823  164.0739 C.ar    1  UNL1        0.0810
     42 N         138.0339  140.1856  165.2764 N.ar    1  UNL1       -0.2497
@<TRIPOS>BOND
     1    32    33    1
     2    33    34   ar
     3    34    35   ar
     4    35    36   ar
     5    36    37   ar
     6    37    26    1
     7    26    27   ar
     8    27    28   ar
     9    28    29   ar
    10    29    25    1
    11    25    24    1
    12    24    23    1
    13    23     1    1
    14     1     2    1
    15     2     3    1
    16     3     4    1
    17     4     5    1
    18     5     6   ar
    19     6     7   ar
    20     7     8   ar
    21     8     9   ar
    22     9    10   ar
    23    10    16    1
    24    16    17   ar
    25    17    18   ar
    26    18    19    1
    27    18    20   ar
    28    20    21   ar
    29    21    22    1
    30    10    11   ar
    31    11    12   ar
    32    12    13   ar
    33    13    14    1
    34    14    15    1
    35    29    30   ar
    36    30    31    1
    37    37    38   ar
    38    38    39   ar
    39    39    40   ar
    40    40    41   ar
    41    41    42   ar
    42    42    33   ar
    43    41    36   ar
    44    30    26   ar
    45    15     2    1
    46    13     5   ar
    47    12     8   ar
    48    21    16   ar
@<TRIPOS>MOLECULE
*****
 42 48 0 0 0
SMALL
GASTEIGER

@<TRIPOS>ATOM
      1 C         140.0583  142.0190  157.1775 C.3     1  UNL1        0.0730
      2 N         140.2760  142.5366  158.5684 N.3     1  UNL1       -0.2720
      3 C         140.8278  143.9280  158.6660 C.3     1  UNL1        0.0768
      4 C         141.1530  144.7209  159.8972 C.3     1  UNL1        0.0434
      5 C         141.0067  144.3181  161.3346 C.ar    1  UNL1       -0.0231
      6 C         141.4491  145.4140  162.2585 C.ar    1  UNL1       -0.0013
      7 C         141.3838  145.2148  163.7438 C.ar    1  UNL1        0.0388
      8 C         140.8762  143.9197  164.3053 C.ar    1  UNL1        0.1645
      9 O         140.6984  143.4378  165.7146 O.2     1  UNL1       -0.4333
     10 C         140.1461  142.0442  165.6617 C.ar    1  UNL1        0.2474
     11 N         139.9827  141.6647  164.2197 N.ar    1  UNL1       -0.2073
     12 C         140.4339  142.8239  163.3814 C.ar    1  UNL1        0.1147
     13 C         140.4992  143.0231  161.8961 C.ar    1  UNL1       -0.0039
     14 C         140.0125  141.8109  161.1587 C.3     1  UNL1        0.0450
     15 C         139.9132  141.5945  159.6777 C.3     1  UNL1        0.0769
     16 C         139.8154  141.1814  166.8433 C.ar    1  UNL1        0.1325
     17 C         140.3116  141.3783  168.2452 C.ar    1  UNL1        0.0399
     18 C         139.7333  140.2889  169.0989 C.ar    1  UNL1        0.0806
     19 C         139.9674  140.1024  170.5687 C.3     1  UNL1        0.0540
     20 N         138.8797  139.4188  168.2246 N.ar    1  UNL1       -0.1735
     21 N         138.9305  139.9704  166.8307 N.ar    1  UNL1       -0.2446
     22 C         138.2209  139.4094  165.6341 C.3     1  UNL1        0.1539
     23 C         139.6131  140.6024  156.9654 C.3     1  UNL1        0.0294
     24 C         140.5973  139.5675  156.5068 C.3     1  UNL1        0.0666
     25 S         140.8432  138.3449  157.3402 S.3     1  UNL1       -0.0756
     26 C         142.3721  138.5481  160.9021 C.ar    1  UNL1        0.1669
     27 N         143.6069  138.6107  160.0526 N.ar    1  UNL1       -0.1282
     28 N         143.1844  138.5422  158.6150 N.ar    1  UNL1       -0.1221
     29 C         141.6886  138.4373  158.5759 C.ar    1  UNL1        0.1932
     30 N         141.1866  138.4409  159.9894 N.ar    1  UNL1       -0.2884
     31 C         139.7510  138.3528  160.4154 C.3     1  UNL1        0.1340
     32 C         144.5577  143.3155  165.3456 C.3     1  UNL1        0.0521
     33 C         144.0009  142.1332  164.6094 C.ar    1  UNL1        0.0593
     34 C         144.0427  142.0952  163.1105 C.ar    1  UNL1        0.0147
     35 C         143.4858  140.9129  162.3744 C.ar    1  UNL1        0.0028
     36 C         142.8871  139.7684  163.1371 C.ar    1  UNL1        0.0206
     37 C         142.3303  138.5860  162.4009 C.ar    1  UNL1        0.0374
     38 C         141.7316  137.4416  163.1638 C.ar    1  UNL1        0.0031
     39 C         141.6898  137.4796  164.6628 C.ar    1  UNL1        0.0016
     40 C         142.2466  138.6619  165.3988 C.ar    1  UNL1        0.0191
     41 C         142.8453  139.8063  164.6361 C.ar    1  UNL1        0.0810
     42 N         143.4022  140.9887  165.3723 N.ar    1  UNL1       -0.2497
@<TRIPOS>BOND
     1    32    33    1
     2    33    34   ar
     3    34    35   ar
     4    35    36   ar
     5    36    37   ar
     6    37    26    1
     7    26    27   ar
     8    27    28   ar
     9    28    29   ar
    10    29    25    1
    11    25    24    1
    12    24    23    1
    13    23     1    1
    14     1     2    1
    15     2     3    1
    16     3     4    1
    17     4     5    1
    18     5     6   ar
    19     6     7   ar
    20     7     8   ar
    21     8     9   ar
    22     9    10   ar
    23    10    16    1
    24    16    17   ar
    25    17    18   ar
    26    18    19    1
    27    18    20   ar
    28    20    21   ar
    29    21    22    1
    30    10    11   ar
    31    11    12   ar
    32    12    13   ar
    33    13    14    1
    34    14    15    1
    35    29    30   ar
    36    30    31    1
    37    37    38   ar
    38    38    39   ar
    39    39    40   ar
    40    40    41   ar
    41    41    42   ar
    42    42    33   ar
    43    41    36   ar
    44    30    26   ar
    45    15     2    1
    46    13     5   ar
    47    12     8   ar
    48    21    16   ar
@<TRIPOS>MOLECULE
*****
 42 48 0 0 0
SMALL
GASTEIGER

@<TRIPOS>ATOM
      1 C         140.7311  138.5270  158.5079 C.3     1  UNL1        0.0730
      2 N         141.4087  138.8114  159.8155 N.3     1  UNL1       -0.2720
      3 C         142.9084  138.8186  159.7833 C.3     1  UNL1        0.0768
      4 C         143.8669  139.0671  160.9102 C.3     1  UNL1        0.0434
      5 C         143.5624  139.3699  162.3473 C.ar    1  UNL1       -0.0231
      6 C         144.8183  139.5517  163.1471 C.ar    1  UNL1       -0.0013
      7 C         144.7362  139.8624  164.6122 C.ar    1  UNL1        0.0388
      8 C         143.3981  139.9914  165.2777 C.ar    1  UNL1        0.1645
      9 O         143.0063  140.2891  166.6947 O.2     1  UNL1       -0.4333
     10 C         141.5082  140.2913  166.7707 C.ar    1  UNL1        0.2474
     11 N         140.9741  139.9949  165.4007 N.ar    1  UNL1       -0.2073
     12 C         142.1421  139.8096  164.4779 C.ar    1  UNL1        0.1147
     13 C         142.2243  139.4989  163.0128 C.ar    1  UNL1       -0.0039
     14 C         140.8601  139.3570  162.4053 C.3     1  UNL1        0.0450
     15 C         140.4972  139.0510  160.9824 C.3     1  UNL1        0.0769
     16 C         140.6882  140.5451  168.0008 C.ar    1  UNL1        0.1325
     17 C         139.4510  139.7994  168.4051 C.ar    1  UNL1        0.0399
     18 C         138.9595  140.3827  169.6967 C.ar    1  UNL1        0.0806
     19 C         137.7474  139.9378  170.4603 C.3     1  UNL1        0.0540
     20 N         139.8929  141.4889  170.0906 N.ar    1  UNL1       -0.1735
     21 N         140.9612  141.5892  169.0425 N.ar    1  UNL1       -0.2446
     22 C         142.1023  142.5629  169.0370 C.3     1  UNL1        0.1539
     23 C         140.3500  139.6579  157.5991 C.3     1  UNL1        0.0294
     24 C         138.9465  139.7625  157.0800 C.3     1  UNL1        0.0666
     25 S         138.1191  140.9737  157.3937 S.3     1  UNL1       -0.0756
     26 C         138.9596  142.8875  160.6642 C.ar    1  UNL1        0.1669
     27 N         139.4691  143.8457  159.6286 N.ar    1  UNL1       -0.1282
     28 N         139.2162  143.2453  158.2774 N.ar    1  UNL1       -0.1221
     29 C         138.5505  141.9162  158.4780 C.ar    1  UNL1        0.1932
     30 N         138.3920  141.6951  159.9531 N.ar    1  UNL1       -0.2884
     31 C         137.7741  140.4926  160.6030 C.3     1  UNL1        0.1340
     32 C         144.3016  143.4938  164.9475 C.3     1  UNL1        0.0521
     33 C         142.9785  143.3921  164.2481 C.ar    1  UNL1        0.0593
     34 C         142.9289  143.1927  162.7622 C.ar    1  UNL1        0.0147
     35 C         141.6058  143.0910  162.0629 C.ar    1  UNL1        0.0028
     36 C         140.3323  143.1886  162.8494 C.ar    1  UNL1        0.0206
     37 C         139.0092  143.0869  162.1500 C.ar    1  UNL1        0.0374
     38 C         137.7357  143.1846  162.9366 C.ar    1  UNL1        0.0031
     39 C         137.7853  143.3839  164.4225 C.ar    1  UNL1        0.0016
     40 C         139.1083  143.4856  165.1218 C.ar    1  UNL1        0.0191
     41 C         140.3818  143.3880  164.3353 C.ar    1  UNL1        0.0810
     42 N         141.7049  143.4897  165.0347 N.ar    1  UNL1       -0.2497
@<TRIPOS>BOND
     1    32    33    1
     2    33    34   ar
     3    34    35   ar
     4    35    36   ar
     5    36    37   ar
     6    37    26    1
     7    26    27   ar
     8    27    28   ar
     9    28    29   ar
    10    29    25    1
    11    25    24    1
    12    24    23    1
    13    23     1    1
    14     1     2    1
    15     2     3    1
    16     3     4    1
    17     4     5    1
    18     5     6   ar
    19     6     7   ar
    20     7     8   ar
    21     8     9   ar
    22     9    10   ar
    23    10    16    1
    24    16    17   ar
    25    17    18   ar
    26    18    19    1
    27    18    20   ar
    28    20    21   ar
    29    21    22    1
    30    10    11   ar
    31    11    12   ar
    32    12    13   ar
    33    13    14    1
    34    14    15    1
    35    29    30   ar
    36    30    31    1
    37    37    38   ar
    38    38    39   ar
    39    39    40   ar
    40    40    41   ar
    41    41    42   ar
    42    42    33   ar
    43    41    36   ar
    44    30    26   ar
    45    15     2    1
    46    13     5   ar
    47    12     8   ar
    48    21    16   ar
@<TRIPOS>MOLECULE
*****
 42 48 0 0 0
SMALL
GASTEIGER

@<TRIPOS>ATOM
      1 C         141.2593  144.8474  158.3788 C.3     1  UNL1        0.0730
      2 N         140.6702  144.0820  159.5264 N.3     1  UNL1       -0.2720
      3 C         139.3807  143.3708  159.2406 C.3     1  UNL1        0.0768
      4 C         138.5509  142.5309  160.1659 C.3     1  UNL1        0.0434
      5 C         138.8056  142.1948  161.6053 C.ar    1  UNL1       -0.0231
      6 C         137.7216  141.3215  162.1643 C.ar    1  UNL1       -0.0013
      7 C         137.7850  140.8690  163.5930 C.ar    1  UNL1        0.0388
      8 C         138.9324  141.2898  164.4629 C.ar    1  UNL1        0.1645
      9 O         139.2622  141.0025  165.8976 O.2     1  UNL1       -0.4333
     10 C         140.5501  141.6982  166.2255 C.ar    1  UNL1        0.2474
     11 N         141.0162  142.4155  164.9933 N.ar    1  UNL1       -0.2073
     12 C         140.0164  142.1630  163.9039 C.ar    1  UNL1        0.1147
     13 C         139.9530  142.6155  162.4752 C.ar    1  UNL1       -0.0039
     14 C         141.1290  143.4763  162.1203 C.3     1  UNL1        0.0450
     15 C         141.4482  144.1289  160.8079 C.3     1  UNL1        0.0769
     16 C         141.2492  141.6799  167.5524 C.ar    1  UNL1        0.1325
     17 C         142.5969  142.2688  167.8472 C.ar    1  UNL1        0.0399
     18 C         142.9039  142.0224  169.2946 C.ar    1  UNL1        0.0806
     19 C         144.1502  142.4433  170.0156 C.3     1  UNL1        0.0540
     20 N         141.7460  141.2811  169.8944 N.ar    1  UNL1       -0.1735
     21 N         140.7234  141.0695  168.8177 N.ar    1  UNL1       -0.2446
     22 C         139.4060  140.3702  168.9781 C.3     1  UNL1        0.1539
     23 C         142.6000  144.4604  157.8287 C.3     1  UNL1        0.0294
     24 C         142.8730  143.0342  157.4521 C.3     1  UNL1        0.0666
     25 S         144.1081  142.3486  157.9565 S.3     1  UNL1       -0.0756
     26 C         143.8798  139.9668  161.0127 C.ar    1  UNL1        0.1669
     27 N         143.7449  138.9955  159.8775 N.ar    1  UNL1       -0.1282
     28 N         143.8140  139.7696  158.5945 N.ar    1  UNL1       -0.1221
     29 C         143.9916  141.2192  158.9367 C.ar    1  UNL1        0.1932
     30 N         144.0322  141.3410  160.4312 N.ar    1  UNL1       -0.2884
     31 C         144.1965  142.6138  161.2079 C.3     1  UNL1        0.1340
     32 C         138.8937  137.3850  164.9780 C.3     1  UNL1        0.0521
     33 C         140.1365  137.9447  164.3517 C.ar    1  UNL1        0.0593
     34 C         140.1514  138.2876  162.8915 C.ar    1  UNL1        0.0147
     35 C         141.3942  138.8473  162.2652 C.ar    1  UNL1        0.0028
     36 C         142.6221  139.0642  163.0991 C.ar    1  UNL1        0.0206
     37 C         143.8648  139.6239  162.4728 C.ar    1  UNL1        0.0374
     38 C         145.0926  139.8407  163.3068 C.ar    1  UNL1        0.0031
     39 C         145.0776  139.4979  164.7670 C.ar    1  UNL1        0.0016
     40 C         143.8349  138.9382  165.3933 C.ar    1  UNL1        0.0191
     41 C         142.6071  138.7213  164.5594 C.ar    1  UNL1        0.0810
     42 N         141.3643  138.1616  165.1857 N.ar    1  UNL1       -0.2497
@<TRIPOS>BOND
     1    32    33    1
     2    33    34   ar
     3    34    35   ar
     4    35    36   ar
     5    36    37   ar
     6    37    26    1
     7    26    27   ar
     8    27    28   ar
     9    28    29   ar
    10    29    25    1
    11    25    24    1
    12    24    23    1
    13    23     1    1
    14     1     2    1
    15     2     3    1
    16     3     4    1
    17     4     5    1
    18     5     6   ar
    19     6     7   ar
    20     7     8   ar
    21     8     9   ar
    22     9    10   ar
    23    10    16    1
    24    16    17   ar
    25    17    18   ar
    26    18    19    1
    27    18    20   ar
    28    20    21   ar
    29    21    22    1
    30    10    11   ar
    31    11    12   ar
    32    12    13   ar
    33    13    14    1
    34    14    15    1
    35    29    30   ar
    36    30    31    1
    37    37    38   ar
    38    38    39   ar
    39    39    40   ar
    40    40    41   ar
    41    41    42   ar
    42    42    33   ar
    43    41    36   ar
    44    30    26   ar
    45    15     2    1
    46    13     5   ar
    47    12     8   ar
    48    21    16   ar
@<TRIPOS>MOLECULE
*****
 42 48 0 0 0
SMALL
GASTEIGER

@<TRIPOS>ATOM
      1 C         138.7023  143.1495  157.6615 C.3     1  UNL1        0.0730
      2 N         139.2619  142.2096  158.6878 N.3     1  UNL1       -0.2720
      3 C         140.1821  141.1470  158.1640 C.3     1  UNL1        0.0768
      4 C         140.8950  140.0688  158.9253 C.3     1  UNL1        0.0434
      5 C         140.8637  139.7870  160.3981 C.ar    1  UNL1       -0.0231
      6 C         141.7243  138.6095  160.7491 C.ar    1  UNL1       -0.0013
      7 C         141.8330  138.1588  162.1756 C.ar    1  UNL1        0.0388
      8 C         141.0811  138.8853  163.2512 C.ar    1  UNL1        0.1645
      9 O         140.9939  138.6730  164.7335 O.2     1  UNL1       -0.4333
     10 C         140.0794  139.7191  165.2987 C.ar    1  UNL1        0.2474
     11 N         139.6014  140.5781  164.1656 N.ar    1  UNL1       -0.2073
     12 C         140.2205  140.0628  162.9002 C.ar    1  UNL1        0.1147
     13 C         140.1118  140.5135  161.4737 C.ar    1  UNL1       -0.0039
     14 C         139.2055  141.7015  161.3419 C.3     1  UNL1        0.0450
     15 C         138.8273  142.4563  160.1020 C.3     1  UNL1        0.0769
     16 C         139.7080  139.8784  166.7432 C.ar    1  UNL1        0.1325
     17 C         140.3891  140.7742  167.7350 C.ar    1  UNL1        0.0399
     18 C         139.6924  140.6193  169.0544 C.ar    1  UNL1        0.0806
     19 C         140.0454  141.3310  170.3267 C.3     1  UNL1        0.0540
     20 N         138.5809  139.6278  168.8779 N.ar    1  UNL1       -0.1735
     21 N         138.5905  139.1699  167.4496 N.ar    1  UNL1       -0.2446
     22 C         137.6480  138.1776  166.8354 C.3     1  UNL1        0.1539
     23 C         139.5912  143.7029  156.5875 C.3     1  UNL1        0.0294
     24 C         139.8622  145.1770  156.5238 C.3     1  UNL1        0.0666
     25 S         141.0474  145.7532  157.2401 S.3     1  UNL1       -0.0756
     26 C         142.1306  144.1155  160.5883 C.ar    1  UNL1        0.1669
     27 N         143.1635  143.5662  159.6493 N.ar    1  UNL1       -0.1282
     28 N         142.8834  144.1129  158.2809 N.ar    1  UNL1       -0.1221
     29 C         141.6775  145.0000  158.3740 C.ar    1  UNL1        0.1932
     30 N         141.2122  145.0016  159.8000 N.ar    1  UNL1       -0.2884
     31 C         140.0351  145.7567  160.3425 C.3     1  UNL1        0.1340
     32 C         145.1278  139.2723  164.4368 C.3     1  UNL1        0.0521
     33 C         144.3541  140.4115  163.8419 C.ar    1  UNL1        0.0593
     34 C         144.4515  140.6980  162.3727 C.ar    1  UNL1        0.0147
     35 C         143.6779  141.8372  161.7779 C.ar    1  UNL1        0.0028
     36 C         142.8068  142.6898  162.6522 C.ar    1  UNL1        0.0206
     37 C         142.0332  143.8290  162.0573 C.ar    1  UNL1        0.0374
     38 C         141.1622  144.6815  162.9317 C.ar    1  UNL1        0.0031
     39 C         141.0648  144.3949  164.4009 C.ar    1  UNL1        0.0016
     40 C         141.8384  143.2559  164.9956 C.ar    1  UNL1        0.0191
     41 C         142.7094  142.4033  164.1214 C.ar    1  UNL1        0.0810
     42 N         143.4831  141.2641  164.7163 N.ar    1  UNL1       -0.2497
@<TRIPOS>BOND
     1    32    33    1
     2    33    34   ar
     3    34    35   ar
     4    35    36   ar
     5    36    37   ar
     6    37    26    1
     7    26    27   ar
     8    27    28   ar
     9    28    29   ar
    10    29    25    1
    11    25    24    1
    12    24    23    1
    13    23     1    1
    14     1     2    1
    15     2     3    1
    16     3     4    1
    17     4     5    1
    18     5     6   ar
    19     6     7   ar
    20     7     8   ar
    21     8     9   ar
    22     9    10   ar
    23    10    16    1
    24    16    17   ar
    25    17    18   ar
    26    18    19    1
    27    18    20   ar
    28    20    21   ar
    29    21    22    1
    30    10    11   ar
    31    11    12   ar
    32    12    13   ar
    33    13    14    1
    34    14    15    1
    35    29    30   ar
    36    30    31    1
    37    37    38   ar
    38    38    39   ar
    39    39    40   ar
    40    40    41   ar
    41    41    42   ar
    42    42    33   ar
    43    41    36   ar
    44    30    26   ar
    45    15     2    1
    46    13     5   ar
    47    12     8   ar
    48    21    16   ar
