@<TRIPOS>MOLECULE
*****
 34 37 0 0 0
SMALL
GASTEIGER

@<TRIPOS>ATOM
      1 N         142.0305  139.6409  167.4250 N.3     1  UNL1       -0.2715
      2 C         140.8390  140.5165  167.1732 C.3     1  UNL1        0.0885
      3 C         140.2710  140.6305  165.7896 C.3     1  UNL1        0.0779
      4 N         140.8945  139.8688  164.6578 N.3     1  UNL1       -0.2724
      5 C         142.0860  138.9931  164.9096 C.3     1  UNL1        0.0882
      6 C         142.6540  138.8792  166.2933 C.3     1  UNL1        0.0736
      7 C         143.8456  138.0035  166.5450 C.3     1  UNL1        0.0188
      8 C         140.3265  139.9828  163.2742 C.3     1  UNL1        0.0610
      9 C         139.0746  139.2393  162.9138 C.3     1  UNL1        0.0375
     10 C         138.5065  139.3533  161.5302 C.3     1  UNL1        0.0950
     11 N         139.1905  140.2107  160.5070 N.pl3   1  UNL1       -0.2784
     12 C         140.4424  140.9541  160.8674 C.3     1  UNL1        0.0950
     13 C         141.0104  140.8402  162.2510 C.3     1  UNL1        0.0375
     14 C         138.6225  140.3246  159.1234 C.ar    1  UNL1        0.2194
     15 N         138.8500  139.3630  157.9949 N.ar    1  UNL1       -0.1117
     16 N         138.0954  139.8643  156.7994 N.ar    1  UNL1       -0.1121
     17 C         137.4014  141.1357  157.1890 C.ar    1  UNL1        0.2131
     18 N         136.5339  141.9753  156.2987 N.pl3   1  UNL1       -0.3277
     19 N         137.7271  141.4202  158.6253 N.ar    1  UNL1       -0.2979
     20 H         136.3786  141.7042  155.3651 H       1  UNL1        0.1451
     21 H         136.1199  142.7973  156.6479 H       1  UNL1        0.1451
     22 H         137.4091  142.1907  159.1491 H       1  UNL1        0.1713
     23 C         142.5985  139.5269  168.8087 C.3     1  UNL1        0.0721
     24 C         143.3794  141.8776  169.5924 C.3     1  UNL1        0.0014
     25 C         142.4910  140.6808  169.7609 C.3     1  UNL1        0.0160
     26 C         141.4950  140.6380  170.8818 C.3     1  UNL1        0.0014
     27 C         139.0794  141.5062  165.5378 C.3     1  UNL1        0.0437
     28 C         139.2093  142.7152  164.6596 C.ar    1  UNL1       -0.0207
     29 C         140.4485  143.5582  164.7224 C.ar    1  UNL1       -0.0034
     30 C         140.5784  144.7672  163.8440 C.ar    1  UNL1        0.0111
     31 C         139.4692  145.1332  162.9029 C.ar    1  UNL1        0.0577
     32 CL        139.5991  146.3422  162.0247 Cl      1  UNL1       -0.0822
     33 C         138.2300  144.2903  162.8402 C.ar    1  UNL1        0.0111
     34 C         138.1001  143.0813  163.7184 C.ar    1  UNL1       -0.0034
@<TRIPOS>BOND
     1    24    25    1
     2    25    26    1
     3    25    23    1
     4    23     1    1
     5     1     2    1
     6     2     3    1
     7     3    27    1
     8    27    28    1
     9    28    29   ar
    10    29    30   ar
    11    30    31   ar
    12    31    32    1
    13    31    33   ar
    14    33    34   ar
    15     3     4    1
    16     4     8    1
    17     8     9    1
    18     9    10    1
    19    10    11    1
    20    11    14    1
    21    14    15   ar
    22    15    16   ar
    23    16    17   ar
    24    17    18    1
    25    17    19   ar
    26    11    12    1
    27    12    13    1
    28     4     5    1
    29     5     6    1
    30     6     7    1
    31     6     1    1
    32    34    28   ar
    33    13     8    1
    34    19    14   ar
    35    18    20    1
    36    18    21    1
    37    19    22    1
@<TRIPOS>MOLECULE
*****
 34 37 0 0 0
SMALL
GASTEIGER

@<TRIPOS>ATOM
      1 N         141.0488  139.2146  160.7219 N.3     1  UNL1       -0.2715
      2 C         139.8729  140.0726  161.0839 C.3     1  UNL1        0.0885
      3 C         139.6207  141.3513  160.3416 C.3     1  UNL1        0.0779
      4 N         140.5444  141.7721  159.2372 N.3     1  UNL1       -0.2724
      5 C         141.7203  140.9141  158.8751 C.3     1  UNL1        0.0882
      6 C         141.9725  139.6354  159.6175 C.3     1  UNL1        0.0736
      7 C         143.1484  138.7773  159.2554 C.3     1  UNL1        0.0188
      8 C         140.2922  143.0509  158.4948 C.3     1  UNL1        0.0610
      9 C         139.4475  143.0445  157.2553 C.3     1  UNL1        0.0375
     10 C         139.1953  144.3233  156.5129 C.3     1  UNL1        0.0950
     11 N         139.7877  145.6085  157.0101 N.pl3   1  UNL1       -0.2784
     12 C         140.6324  145.6149  158.2496 C.3     1  UNL1        0.0950
     13 C         140.8846  144.3361  158.9920 C.3     1  UNL1        0.0375
     14 C         139.5355  146.8873  156.2677 C.ar    1  UNL1        0.2194
     15 N         139.9338  147.1776  154.8510 N.ar    1  UNL1       -0.1117
     16 N         139.4852  148.5700  154.5194 N.ar    1  UNL1       -0.1121
     17 C         138.8097  149.1403  155.7313 C.ar    1  UNL1        0.2131
     18 N         138.2086  150.5100  155.8430 N.pl3   1  UNL1       -0.3277
     19 N         138.8408  148.1003  156.8117 N.ar    1  UNL1       -0.2979
     20 H         138.2377  151.1246  155.0744 H       1  UNL1        0.1451
     21 H         137.7849  150.7945  156.6849 H       1  UNL1        0.1451
     22 H         138.4703  148.1969  157.7187 H       1  UNL1        0.1713
     23 C         141.3010  137.9358  161.4642 C.3     1  UNL1        0.0721
     24 C         143.1088  138.7181  163.1583 C.3     1  UNL1        0.0014
     25 C         141.8398  137.9746  162.8636 C.3     1  UNL1        0.0160
     26 C         141.1094  137.2700  163.9683 C.3     1  UNL1        0.0014
     27 C         138.4448  142.2093  160.7036 C.3     1  UNL1        0.0437
     28 C         138.4319  142.9533  162.0061 C.ar    1  UNL1       -0.0207
     29 C         139.1610  144.2582  162.1317 C.ar    1  UNL1       -0.0034
     30 C         139.1481  145.0021  163.4342 C.ar    1  UNL1        0.0111
     31 C         138.4062  144.4412  164.6110 C.ar    1  UNL1        0.0577
     32 CL        138.3933  145.1851  165.9134 Cl      1  UNL1       -0.0822
     33 C         137.6771  143.1363  164.4854 C.ar    1  UNL1        0.0111
     34 C         137.6900  142.3924  163.1829 C.ar    1  UNL1       -0.0034
@<TRIPOS>BOND
     1    24    25    1
     2    25    26    1
     3    25    23    1
     4    23     1    1
     5     1     2    1
     6     2     3    1
     7     3    27    1
     8    27    28    1
     9    28    29   ar
    10    29    30   ar
    11    30    31   ar
    12    31    32    1
    13    31    33   ar
    14    33    34   ar
    15     3     4    1
    16     4     8    1
    17     8     9    1
    18     9    10    1
    19    10    11    1
    20    11    14    1
    21    14    15   ar
    22    15    16   ar
    23    16    17   ar
    24    17    18    1
    25    17    19   ar
    26    11    12    1
    27    12    13    1
    28     4     5    1
    29     5     6    1
    30     6     7    1
    31     6     1    1
    32    34    28   ar
    33    13     8    1
    34    19    14   ar
    35    18    20    1
    36    18    21    1
    37    19    22    1
@<TRIPOS>MOLECULE
*****
 34 37 0 0 0
SMALL
GASTEIGER

@<TRIPOS>ATOM
      1 N         140.8492  140.7412  168.0833 N.3     1  UNL1       -0.2715
      2 C         139.7938  141.3041  167.1782 C.3     1  UNL1        0.0885
      3 C         139.7578  140.9090  165.7316 C.3     1  UNL1        0.0779
      4 N         140.7772  139.9512  165.1901 N.3     1  UNL1       -0.2724
      5 C         141.8326  139.3883  166.0952 C.3     1  UNL1        0.0882
      6 C         141.8686  139.7834  167.5418 C.3     1  UNL1        0.0736
      7 C         142.9241  139.2205  168.4470 C.3     1  UNL1        0.0188
      8 C         140.7412  139.5561  163.7435 C.3     1  UNL1        0.0610
      9 C         141.6002  140.2772  162.7475 C.3     1  UNL1        0.0375
     10 C         141.5642  139.8822  161.3009 C.3     1  UNL1        0.0950
     11 N         140.6692  138.7660  160.8503 N.pl3   1  UNL1       -0.2784
     12 C         139.8102  138.0449  161.8463 C.3     1  UNL1        0.0950
     13 C         139.8462  138.4399  163.2929 C.3     1  UNL1        0.0375
     14 C         140.6333  138.3710  159.4037 C.ar    1  UNL1        0.2194
     15 N         141.8245  138.0895  158.5367 N.ar    1  UNL1       -0.1117
     16 N         141.3272  137.7326  157.1673 N.ar    1  UNL1       -0.1121
     17 C         139.8286  137.7935  157.1879 C.ar    1  UNL1        0.2131
     18 N         138.9186  137.5096  156.0298 N.pl3   1  UNL1       -0.3277
     19 N         139.3997  138.1880  158.5701 N.ar    1  UNL1       -0.2979
     20 H         139.2970  137.2565  155.1569 H       1  UNL1        0.1451
     21 H         137.9428  137.5765  156.1425 H       1  UNL1        0.1451
     22 H         138.4716  138.3061  158.8764 H       1  UNL1        0.1713
     23 C         140.8851  141.1363  169.5299 C.3     1  UNL1        0.0721
     24 C         140.4008  143.6551  169.9435 C.3     1  UNL1        0.0014
     25 C         141.3616  142.5034  169.9224 C.3     1  UNL1        0.0160
     26 C         142.7988  142.7188  170.2939 C.3     1  UNL1        0.0014
     27 C         138.7023  141.4719  164.8264 C.3     1  UNL1        0.0437
     28 C         138.9526  142.7537  164.0887 C.ar    1  UNL1       -0.0207
     29 C         137.8636  143.3665  163.2589 C.ar    1  UNL1       -0.0034
     30 C         138.1139  144.6483  162.5212 C.ar    1  UNL1        0.0111
     31 C         139.4532  145.3174  162.6133 C.ar    1  UNL1        0.0577
     32 CL        139.7035  146.5992  161.8756 Cl      1  UNL1       -0.0822
     33 C         140.5423  144.7046  163.4431 C.ar    1  UNL1        0.0111
     34 C         140.2920  143.4228  164.1808 C.ar    1  UNL1       -0.0034
@<TRIPOS>BOND
     1    24    25    1
     2    25    26    1
     3    25    23    1
     4    23     1    1
     5     1     2    1
     6     2     3    1
     7     3    27    1
     8    27    28    1
     9    28    29   ar
    10    29    30   ar
    11    30    31   ar
    12    31    32    1
    13    31    33   ar
    14    33    34   ar
    15     3     4    1
    16     4     8    1
    17     8     9    1
    18     9    10    1
    19    10    11    1
    20    11    14    1
    21    14    15   ar
    22    15    16   ar
    23    16    17   ar
    24    17    18    1
    25    17    19   ar
    26    11    12    1
    27    12    13    1
    28     4     5    1
    29     5     6    1
    30     6     7    1
    31     6     1    1
    32    34    28   ar
    33    13     8    1
    34    19    14   ar
    35    18    20    1
    36    18    21    1
    37    19    22    1
@<TRIPOS>MOLECULE
*****
 34 37 0 0 0
SMALL
GASTEIGER

@<TRIPOS>ATOM
      1 N         142.9201  141.6069  168.2272 N.3     1  UNL1       -0.2715
      2 C         143.2898  142.5735  167.1414 C.3     1  UNL1        0.0885
      3 C         143.3243  142.1189  165.7123 C.3     1  UNL1        0.0779
      4 N         142.9890  140.6978  165.3691 N.3     1  UNL1       -0.2724
      5 C         142.6193  139.7312  166.4549 C.3     1  UNL1        0.0882
      6 C         142.5848  140.1858  167.8839 C.3     1  UNL1        0.0736
      7 C         142.2151  139.2191  168.9697 C.3     1  UNL1        0.0188
      8 C         143.0235  140.2432  163.9400 C.3     1  UNL1        0.0610
      9 C         141.7807  140.3068  163.1026 C.3     1  UNL1        0.0375
     10 C         141.8151  139.8522  161.6735 C.3     1  UNL1        0.0950
     11 N         143.0924  139.3341  161.0819 N.pl3   1  UNL1       -0.2784
     12 C         144.3352  139.2705  161.9193 C.3     1  UNL1        0.0950
     13 C         144.3007  139.7251  163.3484 C.3     1  UNL1        0.0375
     14 C         143.1268  138.8795  159.6529 C.ar    1  UNL1        0.2194
     15 N         143.8605  139.5526  158.5310 N.ar    1  UNL1       -0.1117
     16 N         143.6208  138.7612  157.2795 N.ar    1  UNL1       -0.1121
     17 C         142.7389  137.5989  157.6280 C.ar    1  UNL1        0.2131
     18 N         142.2484  136.5479  156.6767 N.pl3   1  UNL1       -0.3277
     19 N         142.4337  137.6720  159.0948 N.ar    1  UNL1       -0.2979
     20 H         142.5045  136.5856  155.7268 H       1  UNL1        0.1451
     21 H         141.6705  135.8205  157.0022 H       1  UNL1        0.1451
     22 H         141.8762  137.0387  159.6021 H       1  UNL1        0.1713
     23 C         142.8857  142.0615  169.6562 C.3     1  UNL1        0.0721
     24 C         140.8773  143.7052  169.7764 C.3     1  UNL1        0.0014
     25 C         141.5874  142.4829  170.2781 C.3     1  UNL1        0.0160
     26 C         140.9991  141.6820  171.4018 C.3     1  UNL1        0.0014
     27 C         143.6940  143.0856  164.6265 C.3     1  UNL1        0.0437
     28 C         142.6209  143.8196  163.8784 C.ar    1  UNL1       -0.0207
     29 C         142.8231  144.1774  162.4358 C.ar    1  UNL1       -0.0034
     30 C         141.7499  144.9114  161.6877 C.ar    1  UNL1        0.0111
     31 C         140.4747  145.2875  162.3822 C.ar    1  UNL1        0.0577
     32 CL        139.4016  146.0214  161.6340 Cl      1  UNL1       -0.0822
     33 C         140.2725  144.9296  163.8247 C.ar    1  UNL1        0.0111
     34 C         141.3456  144.1957  164.5729 C.ar    1  UNL1       -0.0034
@<TRIPOS>BOND
     1    24    25    1
     2    25    26    1
     3    25    23    1
     4    23     1    1
     5     1     2    1
     6     2     3    1
     7     3    27    1
     8    27    28    1
     9    28    29   ar
    10    29    30   ar
    11    30    31   ar
    12    31    32    1
    13    31    33   ar
    14    33    34   ar
    15     3     4    1
    16     4     8    1
    17     8     9    1
    18     9    10    1
    19    10    11    1
    20    11    14    1
    21    14    15   ar
    22    15    16   ar
    23    16    17   ar
    24    17    18    1
    25    17    19   ar
    26    11    12    1
    27    12    13    1
    28     4     5    1
    29     5     6    1
    30     6     7    1
    31     6     1    1
    32    34    28   ar
    33    13     8    1
    34    19    14   ar
    35    18    20    1
    36    18    21    1
    37    19    22    1
@<TRIPOS>MOLECULE
*****
 34 37 0 0 0
SMALL
GASTEIGER

@<TRIPOS>ATOM
      1 N         141.9802  138.1584  157.9647 N.3     1  UNL1       -0.2715
      2 C         142.9512  138.0103  159.0984 C.3     1  UNL1        0.0885
      3 C         142.4863  138.1928  160.5128 C.3     1  UNL1        0.0779
      4 N         141.0504  138.5234  160.7936 N.3     1  UNL1       -0.2724
      5 C         140.0794  138.6716  159.6600 C.3     1  UNL1        0.0882
      6 C         140.5443  138.4891  158.2455 C.3     1  UNL1        0.0736
      7 C         139.5732  138.6372  157.1119 C.3     1  UNL1        0.0188
      8 C         140.5856  138.7059  162.2080 C.3     1  UNL1        0.0610
      9 C         140.3857  140.0864  162.7596 C.3     1  UNL1        0.0375
     10 C         139.9208  140.2689  164.1740 C.3     1  UNL1        0.0950
     11 N         139.6558  139.0709  165.0369 N.pl3   1  UNL1       -0.2784
     12 C         139.8557  137.6905  164.4853 C.3     1  UNL1        0.0950
     13 C         140.3206  137.5080  163.0709 C.3     1  UNL1        0.0375
     14 C         139.1910  139.2534  166.4513 C.ar    1  UNL1        0.2194
     15 N         137.9817  138.6180  167.0709 N.ar    1  UNL1       -0.1117
     16 N         137.8971  139.0753  168.4970 N.ar    1  UNL1       -0.1121
     17 C         139.0541  139.9933  168.7588 C.ar    1  UNL1        0.2131
     18 N         139.3581  140.6806  170.0570 N.pl3   1  UNL1       -0.3277
     19 N         139.8537  140.1034  167.4945 N.ar    1  UNL1       -0.2979
     20 H         138.7705  140.5449  170.8352 H       1  UNL1        0.1451
     21 H         140.1452  141.2673  170.1308 H       1  UNL1        0.1451
     22 H         140.6702  140.6394  167.3710 H       1  UNL1        0.1713
     23 C         142.4450  137.9759  156.5503 C.3     1  UNL1        0.0721
     24 C         144.2244  136.3775  155.5361 C.3     1  UNL1        0.0014
     25 C         142.8390  136.6142  156.0601 C.3     1  UNL1        0.0160
     26 C         141.8475  135.4890  156.0939 C.3     1  UNL1        0.0014
     27 C         143.4574  138.0447  161.6464 C.3     1  UNL1        0.0437
     28 C         143.8653  139.2461  162.4464 C.ar    1  UNL1       -0.0207
     29 C         143.8016  139.2066  163.9446 C.ar    1  UNL1       -0.0034
     30 C         144.2095  140.4082  164.7445 C.ar    1  UNL1        0.0111
     31 C         144.6812  141.6492  164.0464 C.ar    1  UNL1        0.0577
     32 CL        145.0891  142.8506  164.8464 Cl      1  UNL1       -0.0822
     33 C         144.7449  141.6887  162.5483 C.ar    1  UNL1        0.0111
     34 C         144.3370  140.4872  161.7483 C.ar    1  UNL1       -0.0034
@<TRIPOS>BOND
     1    24    25    1
     2    25    26    1
     3    25    23    1
     4    23     1    1
     5     1     2    1
     6     2     3    1
     7     3    27    1
     8    27    28    1
     9    28    29   ar
    10    29    30   ar
    11    30    31   ar
    12    31    32    1
    13    31    33   ar
    14    33    34   ar
    15     3     4    1
    16     4     8    1
    17     8     9    1
    18     9    10    1
    19    10    11    1
    20    11    14    1
    21    14    15   ar
    22    15    16   ar
    23    16    17   ar
    24    17    18    1
    25    17    19   ar
    26    11    12    1
    27    12    13    1
    28     4     5    1
    29     5     6    1
    30     6     7    1
    31     6     1    1
    32    34    28   ar
    33    13     8    1
    34    19    14   ar
    35    18    20    1
    36    18    21    1
    37    19    22    1
@<TRIPOS>MOLECULE
*****
 34 37 0 0 0
SMALL
GASTEIGER

@<TRIPOS>ATOM
      1 N         139.8585  144.6444  157.7410 N.3     1  UNL1       -0.2715
      2 C         140.3923  145.2048  159.0259 C.3     1  UNL1        0.0885
      3 C         140.1876  144.4597  160.3115 C.3     1  UNL1        0.0779
      4 N         139.4491  143.1542  160.3123 N.3     1  UNL1       -0.2724
      5 C         138.9152  142.5937  159.0275 C.3     1  UNL1        0.0882
      6 C         139.1199  143.3388  157.7418 C.3     1  UNL1        0.0736
      7 C         138.5860  142.7783  156.4569 C.3     1  UNL1        0.0188
      8 C         139.2443  142.4090  161.5980 C.3     1  UNL1        0.0610
      9 C         138.2078  142.8740  162.5774 C.3     1  UNL1        0.0375
     10 C         138.0031  142.1288  163.8631 C.3     1  UNL1        0.0950
     11 N         138.8349  140.9188  164.1693 N.pl3   1  UNL1       -0.2784
     12 C         139.8715  140.4539  163.1898 C.3     1  UNL1        0.0950
     13 C         140.0762  141.1990  161.9041 C.3     1  UNL1        0.0375
     14 C         138.6302  140.1737  165.4549 C.ar    1  UNL1        0.2194
     15 N         139.3580  140.4212  166.7430 N.ar    1  UNL1       -0.1117
     16 N         138.8394  139.4507  167.7624 N.ar    1  UNL1       -0.1121
     17 C         137.7911  138.6033  167.1043 C.ar    1  UNL1        0.2131
     18 N         137.0093  137.5025  167.7576 N.pl3   1  UNL1       -0.3277
     19 N         137.6618  139.0502  165.6783 N.ar    1  UNL1       -0.2979
     20 H         137.1664  137.2819  168.7042 H       1  UNL1        0.1451
     21 H         136.3390  137.0005  167.2399 H       1  UNL1        0.1451
     22 H         137.0490  138.6723  165.0068 H       1  UNL1        0.1713
     23 C         140.0632  145.3895  156.4554 C.3     1  UNL1        0.0721
     24 C         137.9962  145.9123  154.9706 C.3     1  UNL1        0.0014
     25 C         139.0205  146.3541  155.9734 C.3     1  UNL1        0.0160
     26 C         139.0022  147.7608  156.4942 C.3     1  UNL1        0.0014
     27 C         140.7215  145.0202  161.5964 C.3     1  UNL1        0.0437
     28 C         141.9012  144.3766  162.2626 C.ar    1  UNL1       -0.0207
     29 C         142.0359  144.4210  163.7558 C.ar    1  UNL1       -0.0034
     30 C         143.2158  143.7773  164.4220 C.ar    1  UNL1        0.0111
     31 C         144.2609  143.0893  163.5948 C.ar    1  UNL1        0.0577
     32 CL        145.4407  142.4456  164.2610 Cl      1  UNL1       -0.0822
     33 C         144.1263  143.0448  162.1016 C.ar    1  UNL1        0.0111
     34 C         142.9465  143.6885  161.4354 C.ar    1  UNL1       -0.0034
@<TRIPOS>BOND
     1    24    25    1
     2    25    26    1
     3    25    23    1
     4    23     1    1
     5     1     2    1
     6     2     3    1
     7     3    27    1
     8    27    28    1
     9    28    29   ar
    10    29    30   ar
    11    30    31   ar
    12    31    32    1
    13    31    33   ar
    14    33    34   ar
    15     3     4    1
    16     4     8    1
    17     8     9    1
    18     9    10    1
    19    10    11    1
    20    11    14    1
    21    14    15   ar
    22    15    16   ar
    23    16    17   ar
    24    17    18    1
    25    17    19   ar
    26    11    12    1
    27    12    13    1
    28     4     5    1
    29     5     6    1
    30     6     7    1
    31     6     1    1
    32    34    28   ar
    33    13     8    1
    34    19    14   ar
    35    18    20    1
    36    18    21    1
    37    19    22    1
@<TRIPOS>MOLECULE
*****
 34 37 0 0 0
SMALL
GASTEIGER

@<TRIPOS>ATOM
      1 N         139.4198  139.5311  166.1258 N.3     1  UNL1       -0.2715
      2 C         140.3219  140.5380  165.4761 C.3     1  UNL1        0.0885
      3 C         140.9011  140.2616  164.1203 C.3     1  UNL1        0.0779
      4 N         140.5781  138.9782  163.4143 N.3     1  UNL1       -0.2724
      5 C         139.6761  137.9712  164.0640 C.3     1  UNL1        0.0882
      6 C         139.0969  138.2477  165.4198 C.3     1  UNL1        0.0736
      7 C         138.1948  137.2406  166.0695 C.3     1  UNL1        0.0188
      8 C         141.1573  138.7018  162.0585 C.3     1  UNL1        0.0610
      9 C         140.4162  139.1265  160.8255 C.3     1  UNL1        0.0375
     10 C         140.9953  138.8501  159.4697 C.3     1  UNL1        0.0950
     11 N         142.3156  138.1489  159.3469 N.pl3   1  UNL1       -0.2784
     12 C         143.0568  137.7241  160.5799 C.3     1  UNL1        0.0950
     13 C         142.4776  138.0006  161.9357 C.3     1  UNL1        0.0375
     14 C         142.8948  137.8724  157.9911 C.ar    1  UNL1        0.2194
     15 N         143.6767  138.8395  157.1525 N.ar    1  UNL1       -0.1117
     16 N         144.0589  138.1452  155.8790 N.ar    1  UNL1       -0.1121
     17 C         143.5132  136.7489  155.9305 C.ar    1  UNL1        0.2131
     18 N         143.6609  135.7046  154.8640 N.pl3   1  UNL1       -0.3277
     19 N         142.7937  136.5804  157.2359 N.ar    1  UNL1       -0.2979
     20 H         144.1539  135.9115  154.0373 H       1  UNL1        0.1451
     21 H         143.2650  134.8121  154.9907 H       1  UNL1        0.1451
     22 H         142.3356  135.7649  157.5431 H       1  UNL1        0.1713
     23 C         138.8407  139.8075  167.4816 C.3     1  UNL1        0.0721
     24 C         139.1855  140.5074  169.9597 C.3     1  UNL1        0.0014
     25 C         139.7493  140.0309  168.6540 C.3     1  UNL1        0.0160
     26 C         141.2218  139.7777  168.5206 C.3     1  UNL1        0.0014
     27 C         141.8032  141.2687  163.4705 C.3     1  UNL1        0.0437
     28 C         141.2496  142.5844  163.0098 C.ar    1  UNL1       -0.0207
     29 C         141.9795  143.8566  163.3241 C.ar    1  UNL1       -0.0034
     30 C         141.4258  145.1724  162.8633 C.ar    1  UNL1        0.0111
     31 C         140.1424  145.2159  162.0881 C.ar    1  UNL1        0.0577
     32 CL        139.5889  146.5316  161.6273 Cl      1  UNL1       -0.0822
     33 C         139.4126  143.9437  161.7738 C.ar    1  UNL1        0.0111
     34 C         139.9661  142.6280  162.2346 C.ar    1  UNL1       -0.0034
@<TRIPOS>BOND
     1    24    25    1
     2    25    26    1
     3    25    23    1
     4    23     1    1
     5     1     2    1
     6     2     3    1
     7     3    27    1
     8    27    28    1
     9    28    29   ar
    10    29    30   ar
    11    30    31   ar
    12    31    32    1
    13    31    33   ar
    14    33    34   ar
    15     3     4    1
    16     4     8    1
    17     8     9    1
    18     9    10    1
    19    10    11    1
    20    11    14    1
    21    14    15   ar
    22    15    16   ar
    23    16    17   ar
    24    17    18    1
    25    17    19   ar
    26    11    12    1
    27    12    13    1
    28     4     5    1
    29     5     6    1
    30     6     7    1
    31     6     1    1
    32    34    28   ar
    33    13     8    1
    34    19    14   ar
    35    18    20    1
    36    18    21    1
    37    19    22    1
@<TRIPOS>MOLECULE
*****
 34 37 0 0 0
SMALL
GASTEIGER

@<TRIPOS>ATOM
      1 N         139.3561  139.9180  167.4068 N.3     1  UNL1       -0.2715
      2 C         140.3254  140.6792  166.5519 C.3     1  UNL1        0.0885
      3 C         140.2582  140.5648  165.0578 C.3     1  UNL1        0.0779
      4 N         139.2216  139.6892  164.4186 N.3     1  UNL1       -0.2724
      5 C         138.2523  138.9280  165.2734 C.3     1  UNL1        0.0882
      6 C         138.3195  139.0424  166.7675 C.3     1  UNL1        0.0736
      7 C         137.3501  138.2810  167.6224 C.3     1  UNL1        0.0188
      8 C         139.1543  139.5748  162.9244 C.3     1  UNL1        0.0610
      9 C         140.0003  138.5623  162.2109 C.3     1  UNL1        0.0375
     10 C         139.9331  138.4479  160.7168 C.3     1  UNL1        0.0950
     11 N         139.0198  139.3460  159.9362 N.pl3   1  UNL1       -0.2784
     12 C         138.1738  140.3585  160.6497 C.3     1  UNL1        0.0950
     13 C         138.2411  140.4729  162.1438 C.3     1  UNL1        0.0375
     14 C         138.9526  139.2316  158.4421 C.ar    1  UNL1        0.2194
     15 N         138.1157  140.0785  157.5297 N.ar    1  UNL1       -0.1117
     16 N         138.3563  139.6206  156.1218 N.ar    1  UNL1       -0.1121
     17 C         139.3419  138.4906  156.1639 C.ar    1  UNL1        0.2131
     18 N         139.8668  137.7338  154.9799 N.pl3   1  UNL1       -0.3277
     19 N         139.7104  138.2502  157.5979 N.ar    1  UNL1       -0.2979
     20 H         139.5634  137.9669  154.0728 H       1  UNL1        0.1451
     21 H         140.5147  137.0041  155.1100 H       1  UNL1        0.1451
     22 H         140.3392  137.5681  157.9273 H       1  UNL1        0.1713
     23 C         139.4234  140.0324  168.9009 C.3     1  UNL1        0.0721
     24 C         141.7854  139.4242  169.7958 C.3     1  UNL1        0.0014
     25 C         140.7053  140.4392  169.5650 C.3     1  UNL1        0.0160
     26 C         140.9072  141.8610  169.9984 C.3     1  UNL1        0.0014
     27 C         141.2276  141.3261  164.2029 C.3     1  UNL1        0.0437
     28 C         140.8172  142.6278  163.5808 C.ar    1  UNL1       -0.0207
     29 C         139.7576  143.4682  164.2296 C.ar    1  UNL1       -0.0034
     30 C         139.3472  144.7699  163.6074 C.ar    1  UNL1        0.0111
     31 C         139.9964  145.2313  162.3363 C.ar    1  UNL1        0.0577
     32 CL        139.5861  146.5329  161.7142 Cl      1  UNL1       -0.0822
     33 C         141.0560  144.3909  161.6874 C.ar    1  UNL1        0.0111
     34 C         141.4664  143.0892  162.3096 C.ar    1  UNL1       -0.0034
@<TRIPOS>BOND
     1    24    25    1
     2    25    26    1
     3    25    23    1
     4    23     1    1
     5     1     2    1
     6     2     3    1
     7     3    27    1
     8    27    28    1
     9    28    29   ar
    10    29    30   ar
    11    30    31   ar
    12    31    32    1
    13    31    33   ar
    14    33    34   ar
    15     3     4    1
    16     4     8    1
    17     8     9    1
    18     9    10    1
    19    10    11    1
    20    11    14    1
    21    14    15   ar
    22    15    16   ar
    23    16    17   ar
    24    17    18    1
    25    17    19   ar
    26    11    12    1
    27    12    13    1
    28     4     5    1
    29     5     6    1
    30     6     7    1
    31     6     1    1
    32    34    28   ar
    33    13     8    1
    34    19    14   ar
    35    18    20    1
    36    18    21    1
    37    19    22    1
@<TRIPOS>MOLECULE
*****
 34 37 0 0 0
SMALL
GASTEIGER

@<TRIPOS>ATOM
      1 N         140.3251  143.8814  160.1329 N.3     1  UNL1       -0.2715
      2 C         140.8169  142.4996  160.4473 C.3     1  UNL1        0.0885
      3 C         141.1155  142.1146  161.8660 C.3     1  UNL1        0.0779
      4 N         140.9223  143.1112  162.9702 N.3     1  UNL1       -0.2724
      5 C         140.4305  144.4930  162.6557 C.3     1  UNL1        0.0882
      6 C         140.1319  144.8780  161.2371 C.3     1  UNL1        0.0736
      7 C         139.6401  146.2598  160.9227 C.3     1  UNL1        0.0188
      8 C         141.2209  142.7262  164.3888 C.3     1  UNL1        0.0610
      9 C         142.6394  142.6985  164.8758 C.3     1  UNL1        0.0375
     10 C         142.9380  142.3135  166.2944 C.3     1  UNL1        0.0950
     11 N         141.8182  141.9561  167.2261 N.pl3   1  UNL1       -0.2784
     12 C         140.3997  141.9837  166.7392 C.3     1  UNL1        0.0950
     13 C         140.1011  142.3688  165.3205 C.3     1  UNL1        0.0375
     14 C         142.1168  141.5710  168.6448 C.ar    1  UNL1        0.2194
     15 N         141.5209  142.1949  169.8718 N.ar    1  UNL1       -0.1117
     16 N         142.0995  141.5040  171.0709 N.ar    1  UNL1       -0.1121
     17 C         143.0530  140.4529  170.5849 C.ar    1  UNL1        0.2131
     18 N         143.8551  139.5236  171.4469 N.pl3   1  UNL1       -0.3277
     19 N         143.0637  140.4944  169.0855 N.ar    1  UNL1       -0.2979
     20 H         143.7796  139.5733  172.4273 H       1  UNL1        0.1451
     21 H         144.4570  138.8640  171.0324 H       1  UNL1        0.1451
     22 H         143.5983  139.9164  168.4944 H       1  UNL1        0.1713
     23 C         140.0265  144.2664  158.7142 C.3     1  UNL1        0.0721
     24 C         142.4739  144.5306  157.8834 C.3     1  UNL1        0.0014
     25 C         141.0513  145.0058  157.9062 C.3     1  UNL1        0.0160
     26 C         140.6536  146.2204  157.1209 C.3     1  UNL1        0.0014
     27 C         141.6073  140.7328  162.1804 C.3     1  UNL1        0.0437
     28 C         140.7918  139.8274  163.0551 C.ar    1  UNL1       -0.0207
     29 C         141.4454  139.0868  164.1840 C.ar    1  UNL1       -0.0034
     30 C         140.6298  138.1813  165.0587 C.ar    1  UNL1        0.0111
     31 C         139.1607  138.0165  164.8045 C.ar    1  UNL1        0.0577
     32 CL        138.3452  137.1111  165.6792 Cl      1  UNL1       -0.0822
     33 C         138.5072  138.7571  163.6756 C.ar    1  UNL1        0.0111
     34 C         139.3227  139.6625  162.8009 C.ar    1  UNL1       -0.0034
@<TRIPOS>BOND
     1    24    25    1
     2    25    26    1
     3    25    23    1
     4    23     1    1
     5     1     2    1
     6     2     3    1
     7     3    27    1
     8    27    28    1
     9    28    29   ar
    10    29    30   ar
    11    30    31   ar
    12    31    32    1
    13    31    33   ar
    14    33    34   ar
    15     3     4    1
    16     4     8    1
    17     8     9    1
    18     9    10    1
    19    10    11    1
    20    11    14    1
    21    14    15   ar
    22    15    16   ar
    23    16    17   ar
    24    17    18    1
    25    17    19   ar
    26    11    12    1
    27    12    13    1
    28     4     5    1
    29     5     6    1
    30     6     7    1
    31     6     1    1
    32    34    28   ar
    33    13     8    1
    34    19    14   ar
    35    18    20    1
    36    18    21    1
    37    19    22    1
