@<TRIPOS>MOLECULE
*****
 27 29 0 0 0
SMALL
GASTEIGER

@<TRIPOS>ATOM
      1 N         143.2203  143.4664  171.0739 N.pl3   1  UNL1       -0.3375
      2 C         142.2945  142.6367  170.2345 C.ar    1  UNL1        0.1568
      3 N         141.1254  141.8411  170.7346 N.ar    1  UNL1       -0.2214
      4 C         140.4837  141.1696  169.5568 C.ar    1  UNL1        0.1227
      5 C         139.2958  140.2608  169.4440 C.ar    1  UNL1        0.1518
      6 O         138.5232  139.8802  170.6721 O.3     1  UNL1       -0.5040
      7 C         138.8803  139.7325  168.1029 C.ar    1  UNL1        0.0427
      8 C         139.6528  140.1130  166.8748 C.ar    1  UNL1        0.0570
      9 C         140.8408  141.0219  166.9877 C.ar    1  UNL1        0.0128
     10 C         141.2562  141.5502  168.3287 C.ar    1  UNL1        0.0528
     11 S         142.3754  142.4569  168.7475 S.2     1  UNL1       -0.0519
     12 H         143.0849  143.5224  172.0474 H       1  UNL1        0.1442
     13 H         143.9632  143.9550  170.6512 H       1  UNL1        0.1442
     14 H         138.7827  140.2102  171.5098 H       1  UNL1        0.2923
     15 C         139.2374  139.5848  165.5338 C.2     1  UNL1        0.2462
     16 O         138.5513  140.4875  164.5518 O.2     1  UNL1       -0.2701
     17 N         139.5081  138.1538  165.1747 N.am    1  UNL1       -0.2969
     18 H         139.9585  137.5613  165.8193 H       1  UNL1        0.1501
     19 C         139.0927  137.6255  163.8337 C.3     1  UNL1        0.1166
     20 C         139.9648  137.8536  162.6348 C.ar    1  UNL1       -0.0017
     21 C         139.3453  138.1744  161.3069 C.ar    1  UNL1       -0.0017
     22 C         140.2175  138.4025  160.1079 C.ar    1  UNL1        0.0120
     23 C         141.7090  138.3098  160.2369 C.ar    1  UNL1        0.0682
     24 CL        142.5811  138.5379  159.0380 Cl      1  UNL1       -0.0814
     25 C         142.3285  137.9889  161.5648 C.ar    1  UNL1        0.0679
     26 CL        143.8200  137.8962  161.6938 Cl      1  UNL1       -0.0814
     27 C         141.4564  137.7608  162.7637 C.ar    1  UNL1        0.0096
@<TRIPOS>BOND
     1     1     2    1
     2     2     3   ar
     3     3     4   ar
     4     4     5   ar
     5     5     6    1
     6     5     7   ar
     7     7     8   ar
     8     8    15    1
     9    15    16    2
    10    15    17   am
    11    17    19    1
    12    19    20    1
    13    20    21   ar
    14    21    22   ar
    15    22    23   ar
    16    23    24    1
    17    23    25   ar
    18    25    26    1
    19    25    27   ar
    20     8     9   ar
    21     9    10   ar
    22    10    11   ar
    23    11     2   ar
    24    10     4   ar
    25    27    20   ar
    26     1    12    1
    27     1    13    1
    28     6    14    1
    29    17    18    1
@<TRIPOS>MOLECULE
*****
 27 29 0 0 0
SMALL
GASTEIGER

@<TRIPOS>ATOM
      1 N         144.7384  142.8602  170.2109 N.pl3   1  UNL1       -0.3375
      2 C         143.4933  142.2128  169.6811 C.ar    1  UNL1        0.1568
      3 N         142.5019  141.4216  170.4818 N.ar    1  UNL1       -0.2214
      4 C         141.4168  140.9628  169.5532 C.ar    1  UNL1        0.1227
      5 C         140.1781  140.1483  169.7818 C.ar    1  UNL1        0.1518
      6 O         139.8573  139.6406  171.1563 O.3     1  UNL1       -0.5040
      7 C         139.2602  139.8415  168.6357 C.ar    1  UNL1        0.0427
      8 C         139.5810  140.3492  167.2612 C.ar    1  UNL1        0.0570
      9 C         140.8197  141.1637  167.0327 C.ar    1  UNL1        0.0128
     10 C         141.7376  141.4705  168.1787 C.ar    1  UNL1        0.0528
     11 S         143.0209  142.2430  168.2578 S.2     1  UNL1       -0.0519
     12 H         144.9647  142.7840  171.1660 H       1  UNL1        0.1442
     13 H         145.3294  143.3612  169.6034 H       1  UNL1        0.1442
     14 H         140.4307  139.8322  171.8722 H       1  UNL1        0.2923
     15 C         138.6631  140.0424  166.1152 C.2     1  UNL1        0.2462
     16 O         137.8274  138.7969  166.1362 O.2     1  UNL1       -0.2701
     17 N         138.5809  140.9811  164.9482 N.am    1  UNL1       -0.2969
     18 H         139.1294  141.7986  164.9344 H       1  UNL1        0.1501
     19 C         137.6630  140.6744  163.8021 C.3     1  UNL1        0.1166
     20 C         138.2098  140.0632  162.5461 C.ar    1  UNL1       -0.0017
     21 C         139.0849  138.8473  162.6230 C.ar    1  UNL1       -0.0017
     22 C         139.6316  138.2362  161.3669 C.ar    1  UNL1        0.0120
     23 C         139.3033  138.8409  160.0341 C.ar    1  UNL1        0.0682
     24 CL        139.8501  138.2297  158.7782 Cl      1  UNL1       -0.0814
     25 C         138.4282  140.0567  159.9572 C.ar    1  UNL1        0.0679
     26 CL        138.0999  140.6614  158.6244 Cl      1  UNL1       -0.0814
     27 C         137.8815  140.6679  161.2132 C.ar    1  UNL1        0.0096
@<TRIPOS>BOND
     1     1     2    1
     2     2     3   ar
     3     3     4   ar
     4     4     5   ar
     5     5     6    1
     6     5     7   ar
     7     7     8   ar
     8     8    15    1
     9    15    16    2
    10    15    17   am
    11    17    19    1
    12    19    20    1
    13    20    21   ar
    14    21    22   ar
    15    22    23   ar
    16    23    24    1
    17    23    25   ar
    18    25    26    1
    19    25    27   ar
    20     8     9   ar
    21     9    10   ar
    22    10    11   ar
    23    11     2   ar
    24    10     4   ar
    25    27    20   ar
    26     1    12    1
    27     1    13    1
    28     6    14    1
    29    17    18    1
@<TRIPOS>MOLECULE
*****
 27 29 0 0 0
SMALL
GASTEIGER

@<TRIPOS>ATOM
      1 N         143.5419  143.8732  171.2326 N.pl3   1  UNL1       -0.3375
      2 C         142.7146  142.9606  170.3765 C.ar    1  UNL1        0.1568
      3 N         141.3486  142.4378  170.7090 N.ar    1  UNL1       -0.2214
      4 C         140.8979  141.5647  169.5757 C.ar    1  UNL1        0.1227
      5 C         139.6377  140.7828  169.3508 C.ar    1  UNL1        0.1518
      6 O         138.5502  140.7996  170.3838 O.3     1  UNL1       -0.5040
      7 C         139.4650  139.9840  168.0929 C.ar    1  UNL1        0.0427
      8 C         140.5525  139.9672  167.0599 C.ar    1  UNL1        0.0570
      9 C         141.8127  140.7491  167.2848 C.ar    1  UNL1        0.0128
     10 C         141.9854  141.5479  168.5427 C.ar    1  UNL1        0.0528
     11 S         143.1082  142.4106  169.0377 S.2     1  UNL1       -0.0519
     12 H         143.1952  144.1822  172.1007 H       1  UNL1        0.1442
     13 H         144.4315  144.1631  170.9264 H       1  UNL1        0.1442
     14 H         138.6580  141.2986  171.1695 H       1  UNL1        0.2923
     15 C         140.3799  139.1685  165.8021 C.2     1  UNL1        0.2462
     16 O         139.1440  139.3387  164.9692 O.2     1  UNL1       -0.2701
     17 N         141.4431  138.1996  165.3771 N.am    1  UNL1       -0.2969
     18 H         142.2543  138.0879  165.9237 H       1  UNL1        0.1501
     19 C         141.2705  137.4008  164.1192 C.3     1  UNL1        0.1166
     20 C         141.8081  137.9226  162.8197 C.ar    1  UNL1       -0.0017
     21 C         143.2413  138.3537  162.7200 C.ar    1  UNL1       -0.0017
     22 C         143.7789  138.8755  161.4204 C.ar    1  UNL1        0.0120
     23 C         142.8832  138.9662  160.2207 C.ar    1  UNL1        0.0682
     24 CL        143.4208  139.4880  158.9212 Cl      1  UNL1       -0.0814
     25 C         141.4500  138.5351  160.3204 C.ar    1  UNL1        0.0679
     26 CL        140.5543  138.6258  159.1206 Cl      1  UNL1       -0.0814
     27 C         140.9124  138.0133  161.6199 C.ar    1  UNL1        0.0096
@<TRIPOS>BOND
     1     1     2    1
     2     2     3   ar
     3     3     4   ar
     4     4     5   ar
     5     5     6    1
     6     5     7   ar
     7     7     8   ar
     8     8    15    1
     9    15    16    2
    10    15    17   am
    11    17    19    1
    12    19    20    1
    13    20    21   ar
    14    21    22   ar
    15    22    23   ar
    16    23    24    1
    17    23    25   ar
    18    25    26    1
    19    25    27   ar
    20     8     9   ar
    21     9    10   ar
    22    10    11   ar
    23    11     2   ar
    24    10     4   ar
    25    27    20   ar
    26     1    12    1
    27     1    13    1
    28     6    14    1
    29    17    18    1
@<TRIPOS>MOLECULE
*****
 27 29 0 0 0
SMALL
GASTEIGER

@<TRIPOS>ATOM
      1 N         139.9191  144.9663  170.5293 N.pl3   1  UNL1       -0.3375
      2 C         140.5200  143.7090  169.9744 C.ar    1  UNL1        0.1568
      3 N         141.3277  142.7045  170.7416 N.ar    1  UNL1       -0.2214
      4 C         141.7256  141.6100  169.7962 C.ar    1  UNL1        0.1227
      5 C         142.5268  140.3571  169.9914 C.ar    1  UNL1        0.1518
      6 O         143.0886  140.0290  171.3430 O.3     1  UNL1       -0.5040
      7 C         142.7664  139.4322  168.8349 C.ar    1  UNL1        0.0427
      8 C         142.2046  139.7603  167.4833 C.ar    1  UNL1        0.0570
      9 C         141.4033  141.0133  167.2882 C.ar    1  UNL1        0.0128
     10 C         141.1638  141.9381  168.4446 C.ar    1  UNL1        0.0528
     11 S         140.4188  143.2353  168.5547 S.2     1  UNL1       -0.0519
     12 H         140.0412  145.1925  171.4797 H       1  UNL1        0.1442
     13 H         139.4027  145.5654  169.9432 H       1  UNL1        0.1442
     14 H         142.9390  140.6067  172.0653 H       1  UNL1        0.2923
     15 C         142.4441  138.8354  166.3270 C.2     1  UNL1        0.2462
     16 O         143.8386  138.3915  165.9979 O.2     1  UNL1       -0.2701
     17 N         141.2891  138.3545  165.4996 N.am    1  UNL1       -0.2969
     18 H         140.3738  138.6459  165.7155 H       1  UNL1        0.1501
     19 C         141.5286  137.4297  164.3431 C.3     1  UNL1        0.1166
     20 C         140.9973  137.7755  162.9837 C.ar    1  UNL1       -0.0017
     21 C         141.9363  137.8983  161.8204 C.ar    1  UNL1       -0.0017
     22 C         141.4050  138.2442  160.4609 C.ar    1  UNL1        0.0120
     23 C         139.9347  138.4673  160.2648 C.ar    1  UNL1        0.0682
     24 CL        139.4035  138.8131  158.9053 Cl      1  UNL1       -0.0814
     25 C         138.9957  138.3445  161.4280 C.ar    1  UNL1        0.0679
     26 CL        137.5255  138.5676  161.2319 Cl      1  UNL1       -0.0814
     27 C         139.5270  137.9986  162.7875 C.ar    1  UNL1        0.0096
@<TRIPOS>BOND
     1     1     2    1
     2     2     3   ar
     3     3     4   ar
     4     4     5   ar
     5     5     6    1
     6     5     7   ar
     7     7     8   ar
     8     8    15    1
     9    15    16    2
    10    15    17   am
    11    17    19    1
    12    19    20    1
    13    20    21   ar
    14    21    22   ar
    15    22    23   ar
    16    23    24    1
    17    23    25   ar
    18    25    26    1
    19    25    27   ar
    20     8     9   ar
    21     9    10   ar
    22    10    11   ar
    23    11     2   ar
    24    10     4   ar
    25    27    20   ar
    26     1    12    1
    27     1    13    1
    28     6    14    1
    29    17    18    1
@<TRIPOS>MOLECULE
*****
 27 29 0 0 0
SMALL
GASTEIGER

@<TRIPOS>ATOM
      1 N         137.7484  139.6095  170.5451 N.pl3   1  UNL1       -0.3375
      2 C         138.9864  140.2446  169.9846 C.ar    1  UNL1        0.1568
      3 N         140.0208  140.9998  170.7654 N.ar    1  UNL1       -0.2214
      4 C         141.0810  141.4580  169.8082 C.ar    1  UNL1        0.1227
      5 C         142.3426  142.2440  170.0090 C.ar    1  UNL1        0.1518
      6 O         142.7219  142.7160  171.3813 O.3     1  UNL1       -0.5040
      7 C         143.2252  142.5580  168.8373 C.ar    1  UNL1        0.0427
      8 C         142.8459  142.0860  167.4650 C.ar    1  UNL1        0.0570
      9 C         141.5842  141.2999  167.2643 C.ar    1  UNL1        0.0128
     10 C         140.7018  140.9859  168.4359 C.ar    1  UNL1        0.0528
     11 S         139.4072  140.2361  168.5449 S.2     1  UNL1       -0.0519
     12 H         137.5578  139.6694  171.5091 H       1  UNL1        0.1442
     13 H         137.1267  139.1328  169.9490 H       1  UNL1        0.1442
     14 H         142.1706  142.5199  172.1132 H       1  UNL1        0.2923
     15 C         143.7284  142.4000  166.2934 C.2     1  UNL1        0.2462
     16 O         144.5605  143.6480  166.2944 O.2     1  UNL1       -0.2701
     17 N         143.7786  141.4659  165.1208 N.am    1  UNL1       -0.2969
     18 H         143.2325  140.6468  165.1202 H       1  UNL1        0.1501
     19 C         144.6611  141.7799  163.9491 C.3     1  UNL1        0.1166
     20 C         144.3525  141.1993  162.6009 C.ar    1  UNL1       -0.0017
     21 C         144.2015  142.1018  161.4124 C.ar    1  UNL1       -0.0017
     22 C         143.8929  141.5212  160.0642 C.ar    1  UNL1        0.0120
     23 C         143.7353  140.0381  159.9045 C.ar    1  UNL1        0.0682
     24 CL        143.4267  139.4575  158.5563 Cl      1  UNL1       -0.0814
     25 C         143.8863  139.1355  161.0931 C.ar    1  UNL1        0.0679
     26 CL        143.7287  137.6524  160.9335 Cl      1  UNL1       -0.0814
     27 C         144.1949  139.7161  162.4413 C.ar    1  UNL1        0.0096
@<TRIPOS>BOND
     1     1     2    1
     2     2     3   ar
     3     3     4   ar
     4     4     5   ar
     5     5     6    1
     6     5     7   ar
     7     7     8   ar
     8     8    15    1
     9    15    16    2
    10    15    17   am
    11    17    19    1
    12    19    20    1
    13    20    21   ar
    14    21    22   ar
    15    22    23   ar
    16    23    24    1
    17    23    25   ar
    18    25    26    1
    19    25    27   ar
    20     8     9   ar
    21     9    10   ar
    22    10    11   ar
    23    11     2   ar
    24    10     4   ar
    25    27    20   ar
    26     1    12    1
    27     1    13    1
    28     6    14    1
    29    17    18    1
@<TRIPOS>MOLECULE
*****
 27 29 0 0 0
SMALL
GASTEIGER

@<TRIPOS>ATOM
      1 N         137.7230  139.5948  170.6213 N.pl3   1  UNL1       -0.3375
      2 C         138.9559  140.2337  170.0540 C.ar    1  UNL1        0.1568
      3 N         139.9710  141.0271  170.8222 N.ar    1  UNL1       -0.2214
      4 C         141.0325  141.4752  169.8618 C.ar    1  UNL1        0.1227
      5 C         142.2797  142.2867  170.0514 C.ar    1  UNL1        0.1518
      6 O         142.6387  142.8031  171.4132 O.3     1  UNL1       -0.5040
      7 C         143.1679  142.5819  168.8792 C.ar    1  UNL1        0.0427
      8 C         142.8089  142.0655  167.5174 C.ar    1  UNL1        0.0570
      9 C         141.5616  141.2539  167.3279 C.ar    1  UNL1        0.0128
     10 C         140.6735  140.9588  168.5001 C.ar    1  UNL1        0.0528
     11 S         139.3901  140.1915  168.6188 S.2     1  UNL1       -0.0519
     12 H         137.5225  139.6786  171.5815 H       1  UNL1        0.1442
     13 H         137.1144  139.0916  170.0334 H       1  UNL1        0.1442
     14 H         142.0839  142.6187  172.1455 H       1  UNL1        0.2923
     15 C         143.6970  142.3606  166.3452 C.2     1  UNL1        0.2462
     16 O         144.5290  143.6087  166.3301 O.2     1  UNL1       -0.2701
     17 N         143.7531  141.4078  165.1882 N.am    1  UNL1       -0.2969
     18 H         143.2070  140.5887  165.1981 H       1  UNL1        0.1501
     19 C         144.6413  141.7029  164.0159 C.3     1  UNL1        0.1166
     20 C         144.0530  142.2444  162.7468 C.ar    1  UNL1       -0.0017
     21 C         144.5213  141.7228  161.4207 C.ar    1  UNL1       -0.0017
     22 C         143.9330  142.2643  160.1516 C.ar    1  UNL1        0.0120
     23 C         142.8763  143.3274  160.2086 C.ar    1  UNL1        0.0682
     24 CL        142.2880  143.8689  158.9395 Cl      1  UNL1       -0.0814
     25 C         142.4080  143.8490  161.5347 C.ar    1  UNL1        0.0679
     26 CL        141.3513  144.9121  161.5917 Cl      1  UNL1       -0.0814
     27 C         142.9963  143.3075  162.8038 C.ar    1  UNL1        0.0096
@<TRIPOS>BOND
     1     1     2    1
     2     2     3   ar
     3     3     4   ar
     4     4     5   ar
     5     5     6    1
     6     5     7   ar
     7     7     8   ar
     8     8    15    1
     9    15    16    2
    10    15    17   am
    11    17    19    1
    12    19    20    1
    13    20    21   ar
    14    21    22   ar
    15    22    23   ar
    16    23    24    1
    17    23    25   ar
    18    25    26    1
    19    25    27   ar
    20     8     9   ar
    21     9    10   ar
    22    10    11   ar
    23    11     2   ar
    24    10     4   ar
    25    27    20   ar
    26     1    12    1
    27     1    13    1
    28     6    14    1
    29    17    18    1
@<TRIPOS>MOLECULE
*****
 27 29 0 0 0
SMALL
GASTEIGER

@<TRIPOS>ATOM
      1 N         143.3022  143.6028  171.1381 N.pl3   1  UNL1       -0.3375
      2 C         142.4718  142.7345  170.2401 C.ar    1  UNL1        0.1568
      3 N         141.2283  141.9937  170.6335 N.ar    1  UNL1       -0.2214
      4 C         140.7270  141.2559  169.4275 C.ar    1  UNL1        0.1227
      5 C         139.5410  140.3615  169.2193 C.ar    1  UNL1        0.1518
      6 O         138.6072  140.0767  170.3581 O.3     1  UNL1       -0.5040
      7 C         139.2887  139.7519  167.8721 C.ar    1  UNL1        0.0427
      8 C         140.2225  140.0367  166.7332 C.ar    1  UNL1        0.0570
      9 C         141.4085  140.9312  166.9416 C.ar    1  UNL1        0.0128
     10 C         141.6608  141.5407  168.2887 C.ar    1  UNL1        0.0528
     11 S         142.7391  142.4545  168.7909 S.2     1  UNL1       -0.0519
     12 H         143.0440  143.7258  172.0801 H       1  UNL1        0.1442
     13 H         144.1055  144.0496  170.7855 H       1  UNL1        0.1442
     14 H         138.7648  140.4575  171.1996 H       1  UNL1        0.2923
     15 C         139.9702  139.4272  165.3861 C.2     1  UNL1        0.2462
     16 O         141.0559  138.6547  164.6973 O.2     1  UNL1       -0.2701
     17 N         138.6323  139.5902  164.7279 N.am    1  UNL1       -0.2969
     18 H         137.9197  140.0973  165.1800 H       1  UNL1        0.1501
     19 C         138.3800  138.9807  163.3807 C.3     1  UNL1        0.1166
     20 C         138.3896  139.8432  162.1535 C.ar    1  UNL1       -0.0017
     21 C         137.8470  139.3127  160.8596 C.ar    1  UNL1       -0.0017
     22 C         137.8566  140.1753  159.6324 C.ar    1  UNL1        0.0120
     23 C         138.4090  141.5683  159.6992 C.ar    1  UNL1        0.0682
     24 CL        138.4187  142.4308  158.4720 Cl      1  UNL1       -0.0814
     25 C         138.9517  142.0987  160.9930 C.ar    1  UNL1        0.0679
     26 CL        139.5040  143.4917  161.0598 Cl      1  UNL1       -0.0814
     27 C         138.9420  141.2362  162.2202 C.ar    1  UNL1        0.0096
@<TRIPOS>BOND
     1     1     2    1
     2     2     3   ar
     3     3     4   ar
     4     4     5   ar
     5     5     6    1
     6     5     7   ar
     7     7     8   ar
     8     8    15    1
     9    15    16    2
    10    15    17   am
    11    17    19    1
    12    19    20    1
    13    20    21   ar
    14    21    22   ar
    15    22    23   ar
    16    23    24    1
    17    23    25   ar
    18    25    26    1
    19    25    27   ar
    20     8     9   ar
    21     9    10   ar
    22    10    11   ar
    23    11     2   ar
    24    10     4   ar
    25    27    20   ar
    26     1    12    1
    27     1    13    1
    28     6    14    1
    29    17    18    1
@<TRIPOS>MOLECULE
*****
 27 29 0 0 0
SMALL
GASTEIGER

@<TRIPOS>ATOM
      1 N         142.6139  145.1607  156.9867 N.pl3   1  UNL1       -0.3375
      2 C         142.1100  144.6939  158.3201 C.ar    1  UNL1        0.1568
      3 N         141.6641  145.5726  159.4511 N.ar    1  UNL1       -0.2214
      4 C         141.2420  144.6881  160.5867 C.ar    1  UNL1        0.1227
      5 C         140.7130  144.9965  161.9560 C.ar    1  UNL1        0.1518
      6 O         140.5280  146.4218  162.3851 O.3     1  UNL1       -0.5040
      7 C         140.3691  143.8795  162.8963 C.ar    1  UNL1        0.0427
      8 C         140.5541  142.4541  162.4672 C.ar    1  UNL1        0.0570
      9 C         141.0831  142.1458  161.0978 C.ar    1  UNL1        0.0128
     10 C         141.4270  143.2628  160.1576 C.ar    1  UNL1        0.0528
     11 S         141.9634  143.2663  158.7568 S.2     1  UNL1       -0.0519
     12 H         142.6742  146.1241  156.7930 H       1  UNL1        0.1442
     13 H         142.8845  144.5037  156.3052 H       1  UNL1        0.1442
     14 H         140.7429  147.1196  161.7978 H       1  UNL1        0.2923
     15 C         140.2102  141.3372  163.4074 C.2     1  UNL1        0.2462
     16 O         140.4724  139.9147  163.0100 O.2     1  UNL1       -0.2701
     17 N         139.6041  141.6426  164.7450 N.am    1  UNL1       -0.2969
     18 H         139.4320  142.5762  165.0059 H       1  UNL1        0.1501
     19 C         139.2601  140.5256  165.6853 C.3     1  UNL1        0.1166
     20 C         140.1635  140.2134  166.8414 C.ar    1  UNL1       -0.0017
     21 C         141.5861  139.8076  166.5933 C.ar    1  UNL1       -0.0017
     22 C         142.4894  139.4954  167.7494 C.ar    1  UNL1        0.0120
     23 C         141.9702  139.5890  169.1535 C.ar    1  UNL1        0.0682
     24 CL        142.8735  139.2768  170.3095 Cl      1  UNL1       -0.0814
     25 C         140.5476  139.9948  169.4016 C.ar    1  UNL1        0.0679
     26 CL        140.0283  140.0883  170.8057 Cl      1  UNL1       -0.0814
     27 C         139.6442  140.3070  168.2456 C.ar    1  UNL1        0.0096
@<TRIPOS>BOND
     1     1     2    1
     2     2     3   ar
     3     3     4   ar
     4     4     5   ar
     5     5     6    1
     6     5     7   ar
     7     7     8   ar
     8     8    15    1
     9    15    16    2
    10    15    17   am
    11    17    19    1
    12    19    20    1
    13    20    21   ar
    14    21    22   ar
    15    22    23   ar
    16    23    24    1
    17    23    25   ar
    18    25    26    1
    19    25    27   ar
    20     8     9   ar
    21     9    10   ar
    22    10    11   ar
    23    11     2   ar
    24    10     4   ar
    25    27    20   ar
    26     1    12    1
    27     1    13    1
    28     6    14    1
    29    17    18    1
@<TRIPOS>MOLECULE
*****
 27 29 0 0 0
SMALL
GASTEIGER

@<TRIPOS>ATOM
      1 N         139.7598  144.3668  157.0354 N.pl3   1  UNL1       -0.3375
      2 C         140.2189  144.3249  158.4628 C.ar    1  UNL1        0.1568
      3 N         140.0031  145.3962  159.4902 N.ar    1  UNL1       -0.2214
      4 C         140.6252  144.9377  160.7759 C.ar    1  UNL1        0.1227
      5 C         140.7226  145.5787  162.1284 C.ar    1  UNL1        0.1518
      6 O         140.1224  146.9335  162.3613 O.3     1  UNL1       -0.5040
      7 C         141.4203  144.8650  163.2482 C.ar    1  UNL1        0.0427
      8 C         142.0205  143.5102  163.0154 C.ar    1  UNL1        0.0570
      9 C         141.9230  142.8691  161.6627 C.ar    1  UNL1        0.0128
     10 C         141.2254  143.5829  160.5430 C.ar    1  UNL1        0.0528
     11 S         140.9743  143.2041  159.1135 S.2     1  UNL1       -0.0519
     12 H         139.2680  145.1507  156.6993 H       1  UNL1        0.1442
     13 H         139.9503  143.6105  156.4346 H       1  UNL1        0.1442
     14 H         139.6866  147.3794  161.6618 H       1  UNL1        0.2923
     15 C         142.7181  142.7964  164.1351 C.2     1  UNL1        0.2462
     16 O         143.9102  143.4225  164.7961 O.2     1  UNL1       -0.2701
     17 N         142.2237  141.4566  164.5937 N.am    1  UNL1       -0.2969
     18 H         141.4413  141.0457  164.1598 H       1  UNL1        0.1501
     19 C         142.9214  140.7427  165.7134 C.3     1  UNL1        0.1166
     20 C         142.4088  140.8682  167.1175 C.ar    1  UNL1       -0.0017
     21 C         142.6262  139.7538  168.0977 C.ar    1  UNL1       -0.0017
     22 C         142.1136  139.8793  169.5019 C.ar    1  UNL1        0.0120
     23 C         141.3835  141.1192  169.9257 C.ar    1  UNL1        0.0682
     24 CL        140.8709  141.2447  171.3298 Cl      1  UNL1       -0.0814
     25 C         141.1660  142.2336  168.9455 C.ar    1  UNL1        0.0679
     26 CL        140.4360  143.4734  169.3693 Cl      1  UNL1       -0.0814
     27 C         141.6786  142.1081  167.5414 C.ar    1  UNL1        0.0096
@<TRIPOS>BOND
     1     1     2    1
     2     2     3   ar
     3     3     4   ar
     4     4     5   ar
     5     5     6    1
     6     5     7   ar
     7     7     8   ar
     8     8    15    1
     9    15    16    2
    10    15    17   am
    11    17    19    1
    12    19    20    1
    13    20    21   ar
    14    21    22   ar
    15    22    23   ar
    16    23    24    1
    17    23    25   ar
    18    25    26    1
    19    25    27   ar
    20     8     9   ar
    21     9    10   ar
    22    10    11   ar
    23    11     2   ar
    24    10     4   ar
    25    27    20   ar
    26     1    12    1
    27     1    13    1
    28     6    14    1
    29    17    18    1
