@<TRIPOS>MOLECULE
*****
 30 33 0 0 0
SMALL
GASTEIGER

@<TRIPOS>ATOM
      1 C         141.9641  138.2376  163.9174 C.2     1  UNL1        0.3298
      2 C         140.5011  138.0760  164.2059 C.2     1  UNL1        0.1070
      3 C         139.9092  138.6828  165.4434 C.2     1  UNL1        0.1012
      4 N         138.5116  138.6898  165.9882 N.2     1  UNL1       -0.1516
      5 N         138.5190  139.4625  167.2738 N.2     1  UNL1       -0.1518
      6 C         139.9212  139.9331  167.5236 C.2     1  UNL1        0.0940
      7 C         140.7804  139.4512  166.3924 C.3     1  UNL1        0.1532
      8 C         142.2434  139.6128  166.1039 C.2     1  UNL1        0.2205
      9 N         142.8353  139.0060  164.8664 N.2     1  UNL1       -0.0400
     10 C         140.3831  140.7433  168.6984 C.ar    1  UNL1        0.0215
     11 C         141.0178  140.0635  169.8754 C.ar    1  UNL1        0.0221
     12 C         141.4798  140.8737  171.0501 C.ar    1  UNL1        0.1013
     13 N         141.3071  142.3637  171.0481 N.ar    1  UNL1       -0.2165
     14 C         140.6724  143.0435  169.8712 C.ar    1  UNL1        0.2224
     15 F         140.4997  144.5335  169.8691 F       1  UNL1       -0.1832
     16 C         140.2105  142.2333  168.6964 C.ar    1  UNL1        0.0509
     17 N         142.9595  137.6949  160.1141 N.am    1  UNL1       -0.2666
     18 C         142.3676  138.3018  161.3516 C.2     1  UNL1        0.3927
     19 O         141.5872  139.5795  161.2609 O.2     1  UNL1       -0.2238
     20 N         142.5561  137.6308  162.6799 N.am    1  UNL1       -0.1531
     21 H         143.4717  136.8563  160.1736 H       1  UNL1        0.1533
     22 H         143.0683  136.7921  162.7394 H       1  UNL1        0.3030
     23 C         143.3693  139.7188  158.5375 C.3     1  UNL1        0.0263
     24 C         142.7710  138.3659  158.7859 C.3     1  UNL1        0.0977
     25 C         141.9843  137.6840  157.7060 C.ar    1  UNL1       -0.0044
     26 C         140.5676  138.0963  157.4360 C.ar    1  UNL1       -0.0027
     27 C         139.7809  137.4144  156.3561 C.ar    1  UNL1       -0.0003
     28 C         140.4109  136.3202  155.5464 C.ar    1  UNL1       -0.0000
     29 C         141.8275  135.9079  155.8164 C.ar    1  UNL1       -0.0003
     30 C         142.6143  136.5898  156.8962 C.ar    1  UNL1       -0.0027
@<TRIPOS>BOND
     1    24    23    1
     2    24    17    1
     3    17    18   am
     4    18    19    2
     5    18    20   am
     6    20     1    1
     7     1     2    2
     8     2     3    1
     9     3     4    2
    10     4     5    1
    11     5     6    2
    12     6    10    1
    13    10    11   ar
    14    11    12   ar
    15    12    13   ar
    16    13    14   ar
    17    14    15    1
    18    14    16   ar
    19     6     7    1
    20     7     8    1
    21     8     9    2
    22    24    25    1
    23    25    26   ar
    24    26    27   ar
    25    27    28   ar
    26    28    29   ar
    27    29    30   ar
    28     9     1    1
    29    30    25   ar
    30     7     3    1
    31    16    10   ar
    32    17    21    1
    33    20    22    1
@<TRIPOS>MOLECULE
*****
 30 33 0 0 0
SMALL
GASTEIGER

@<TRIPOS>ATOM
      1 C         139.1757  139.1965  159.7268 C.2     1  UNL1        0.3298
      2 C         139.0496  140.6712  159.9700 C.2     1  UNL1        0.1070
      3 C         138.9723  141.1961  161.3730 C.2     1  UNL1        0.1012
      4 N         138.8455  142.5876  161.9186 N.2     1  UNL1       -0.1516
      5 N         138.8158  142.4977  163.4156 N.2     1  UNL1       -0.1518
      6 C         138.9243  141.0506  163.7952 C.2     1  UNL1        0.0940
      7 C         139.0210  140.2461  162.5328 C.3     1  UNL1        0.1532
      8 C         139.1471  138.7714  162.2897 C.2     1  UNL1        0.2205
      9 N         139.2245  138.2466  160.8866 N.2     1  UNL1       -0.0400
     10 C         138.9344  140.5039  165.1920 C.ar    1  UNL1        0.0215
     11 C         139.8916  141.0557  166.2066 C.ar    1  UNL1        0.0221
     12 C         139.9017  140.5090  167.6034 C.ar    1  UNL1        0.1013
     13 N         138.9545  139.4105  167.9856 N.ar    1  UNL1       -0.2165
     14 C         137.9974  138.8587  166.9711 C.ar    1  UNL1        0.2224
     15 F         137.0502  137.7601  167.3534 F       1  UNL1       -0.1832
     16 C         137.9873  139.4054  165.5743 C.ar    1  UNL1        0.0509
     17 N         140.6128  137.5603  156.4089 N.am    1  UNL1       -0.2666
     18 C         140.5354  138.0852  157.8120 C.2     1  UNL1        0.3927
     19 O         141.7403  138.0236  158.7032 O.2     1  UNL1       -0.2238
     20 N         139.2531  138.6716  158.3237 N.am    1  UNL1       -0.1531
     21 H         139.8219  137.6007  155.8239 H       1  UNL1        0.1533
     22 H         138.4623  138.7120  157.7387 H       1  UNL1        0.3030
     23 C         142.8762  137.8403  155.1646 C.3     1  UNL1        0.0263
     24 C         141.8950  136.9739  155.8971 C.3     1  UNL1        0.0977
     25 C         142.1961  135.5211  156.1179 C.ar    1  UNL1       -0.0044
     26 C         143.2584  135.1156  157.0961 C.ar    1  UNL1       -0.0027
     27 C         143.5594  133.6628  157.3169 C.ar    1  UNL1       -0.0003
     28 C         142.7982  132.6155  156.5595 C.ar    1  UNL1       -0.0000
     29 C         141.7359  133.0211  155.5812 C.ar    1  UNL1       -0.0003
     30 C         141.4348  134.4739  155.3605 C.ar    1  UNL1       -0.0027
@<TRIPOS>BOND
     1    24    23    1
     2    24    17    1
     3    17    18   am
     4    18    19    2
     5    18    20   am
     6    20     1    1
     7     1     2    2
     8     2     3    1
     9     3     4    2
    10     4     5    1
    11     5     6    2
    12     6    10    1
    13    10    11   ar
    14    11    12   ar
    15    12    13   ar
    16    13    14   ar
    17    14    15    1
    18    14    16   ar
    19     6     7    1
    20     7     8    1
    21     8     9    2
    22    24    25    1
    23    25    26   ar
    24    26    27   ar
    25    27    28   ar
    26    28    29   ar
    27    29    30   ar
    28     9     1    1
    29    30    25   ar
    30     7     3    1
    31    16    10   ar
    32    17    21    1
    33    20    22    1
@<TRIPOS>MOLECULE
*****
 30 33 0 0 0
SMALL
GASTEIGER

@<TRIPOS>ATOM
      1 C         140.1587  138.5035  164.0172 C.2     1  UNL1        0.3298
      2 C         138.9410  138.1428  164.8153 C.2     1  UNL1        0.1070
      3 C         138.7811  138.6599  166.2143 C.2     1  UNL1        0.1012
      4 N         137.6978  138.4746  167.2351 N.2     1  UNL1       -0.1516
      5 N         138.0859  139.2377  168.4667 N.2     1  UNL1       -0.1518
      6 C         139.4092  139.8947  168.2071 C.2     1  UNL1        0.0940
      7 C         139.8388  139.5376  166.8150 C.3     1  UNL1        0.1532
      8 C         141.0565  139.8983  166.0168 C.2     1  UNL1        0.2205
      9 N         141.2164  139.3812  164.6179 N.2     1  UNL1       -0.0400
     10 C         140.1693  140.7574  169.1704 C.ar    1  UNL1        0.0215
     11 C         141.0430  140.1264  170.2138 C.ar    1  UNL1        0.0221
     12 C         141.8032  140.9891  171.1771 C.ar    1  UNL1        0.1013
     13 N         141.6897  142.4826  171.0971 N.ar    1  UNL1       -0.2165
     14 C         140.8161  143.1135  170.0537 C.ar    1  UNL1        0.2224
     15 F         140.7026  144.6071  169.9736 F       1  UNL1       -0.1832
     16 C         140.0559  142.2508  169.0904 C.ar    1  UNL1        0.0509
     17 N         140.5347  138.4282  160.0670 N.am    1  UNL1       -0.2666
     18 C         140.3747  138.9453  161.4660 C.2     1  UNL1        0.3927
     19 O         140.2707  140.4212  161.7128 O.2     1  UNL1       -0.2238
     20 N         140.3187  137.9865  162.6182 N.am    1  UNL1       -0.1531
     21 H         140.6030  137.4595  159.9050 H       1  UNL1        0.1533
     22 H         140.3870  137.0178  162.4562 H       1  UNL1        0.3030
     23 C         139.3207  139.8840  158.2904 C.3     1  UNL1        0.0263
     24 C         140.5907  139.3871  158.9149 C.3     1  UNL1        0.0977
     25 C         141.9167  139.8490  158.3873 C.ar    1  UNL1       -0.0044
     26 C         142.4384  139.3053  157.0903 C.ar    1  UNL1       -0.0027
     27 C         143.7644  139.7672  156.5627 C.ar    1  UNL1       -0.0003
     28 C         144.5687  140.7728  157.3321 C.ar    1  UNL1       -0.0000
     29 C         144.0469  141.3164  158.6290 C.ar    1  UNL1       -0.0003
     30 C         142.7209  140.8545  159.1566 C.ar    1  UNL1       -0.0027
@<TRIPOS>BOND
     1    24    23    1
     2    24    17    1
     3    17    18   am
     4    18    19    2
     5    18    20   am
     6    20     1    1
     7     1     2    2
     8     2     3    1
     9     3     4    2
    10     4     5    1
    11     5     6    2
    12     6    10    1
    13    10    11   ar
    14    11    12   ar
    15    12    13   ar
    16    13    14   ar
    17    14    15    1
    18    14    16   ar
    19     6     7    1
    20     7     8    1
    21     8     9    2
    22    24    25    1
    23    25    26   ar
    24    26    27   ar
    25    27    28   ar
    26    28    29   ar
    27    29    30   ar
    28     9     1    1
    29    30    25   ar
    30     7     3    1
    31    16    10   ar
    32    17    21    1
    33    20    22    1
@<TRIPOS>MOLECULE
*****
 30 33 0 0 0
SMALL
GASTEIGER

@<TRIPOS>ATOM
      1 C         141.8674  140.5786  157.8311 C.2     1  UNL1        0.3298
      2 C         143.1534  140.4779  157.0655 C.2     1  UNL1        0.1070
      3 C         143.6160  139.1482  156.5481 C.2     1  UNL1        0.1012
      4 N         144.8306  138.7426  155.7670 N.2     1  UNL1       -0.1516
      5 N         144.7580  137.2628  155.5324 N.2     1  UNL1       -0.1518
      6 C         143.4986  136.7539  156.1686 C.2     1  UNL1        0.0940
      7 C         142.7928  137.9191  156.7964 C.3     1  UNL1        0.1532
      8 C         141.5068  138.0198  157.5620 C.2     1  UNL1        0.2205
      9 N         141.0442  139.3495  158.0793 N.2     1  UNL1       -0.0400
     10 C         143.0276  135.3298  156.1758 C.ar    1  UNL1        0.0215
     11 C         141.8375  134.9293  155.3552 C.ar    1  UNL1        0.0221
     12 C         141.3665  133.5051  155.3624 C.ar    1  UNL1        0.1013
     13 N         142.0855  132.4816  156.1902 N.ar    1  UNL1       -0.2165
     14 C         143.2755  132.8821  157.0108 C.ar    1  UNL1        0.2224
     15 F         143.9945  131.8585  157.8386 F       1  UNL1       -0.1832
     16 C         143.7465  134.3062  157.0036 C.ar    1  UNL1        0.0509
     17 N         141.1455  143.5936  160.3088 N.am    1  UNL1       -0.2666
     18 C         141.6082  142.2638  159.7914 C.2     1  UNL1        0.3927
     19 O         142.2745  141.2895  160.7171 O.2     1  UNL1       -0.2238
     20 N         141.4047  141.9084  158.3485 N.am    1  UNL1       -0.1531
     21 H         140.7082  144.2331  159.7013 H       1  UNL1        0.1533
     22 H         140.9674  142.5479  157.7410 H       1  UNL1        0.3030
     23 C         142.7234  144.2737  162.2576 C.3     1  UNL1        0.0263
     24 C         141.3490  143.9490  161.7518 C.3     1  UNL1        0.0977
     25 C         140.1783  143.9798  162.6890 C.ar    1  UNL1       -0.0044
     26 C         138.9023  143.2839  162.3183 C.ar    1  UNL1       -0.0027
     27 C         137.7315  143.3147  163.2555 C.ar    1  UNL1       -0.0003
     28 C         137.8368  144.0414  164.5635 C.ar    1  UNL1       -0.0000
     29 C         139.1128  144.7373  164.9342 C.ar    1  UNL1       -0.0003
     30 C         140.2835  144.7065  163.9970 C.ar    1  UNL1       -0.0027
@<TRIPOS>BOND
     1    24    23    1
     2    24    17    1
     3    17    18   am
     4    18    19    2
     5    18    20   am
     6    20     1    1
     7     1     2    2
     8     2     3    1
     9     3     4    2
    10     4     5    1
    11     5     6    2
    12     6    10    1
    13    10    11   ar
    14    11    12   ar
    15    12    13   ar
    16    13    14   ar
    17    14    15    1
    18    14    16   ar
    19     6     7    1
    20     7     8    1
    21     8     9    2
    22    24    25    1
    23    25    26   ar
    24    26    27   ar
    25    27    28   ar
    26    28    29   ar
    27    29    30   ar
    28     9     1    1
    29    30    25   ar
    30     7     3    1
    31    16    10   ar
    32    17    21    1
    33    20    22    1
@<TRIPOS>MOLECULE
*****
 30 33 0 0 0
SMALL
GASTEIGER

@<TRIPOS>ATOM
      1 C         140.9759  144.9056  162.6116 C.2     1  UNL1        0.3298
      2 C         142.3552  144.5172  163.0548 C.2     1  UNL1        0.1070
      3 C         142.5437  143.7357  164.3212 C.2     1  UNL1        0.1012
      4 N         143.7726  143.2148  165.0057 N.2     1  UNL1       -0.1516
      5 N         143.3413  142.4998  166.2518 N.2     1  UNL1       -0.1518
      6 C         141.8458  142.5788  166.3374 C.2     1  UNL1        0.0940
      7 C         141.3529  143.3426  165.1443 C.3     1  UNL1        0.1532
      8 C         139.9735  143.7311  164.7010 C.2     1  UNL1        0.2205
      9 N         139.7850  144.5125  163.4346 N.2     1  UNL1       -0.0400
     10 C         140.9930  141.9963  167.4252 C.ar    1  UNL1        0.0215
     11 C         140.3922  140.6320  167.2578 C.ar    1  UNL1        0.0221
     12 C         139.5393  140.0495  168.3457 C.ar    1  UNL1        0.1013
     13 N         139.2873  140.8311  169.6008 N.ar    1  UNL1       -0.2165
     14 C         139.8881  142.1953  169.7682 C.ar    1  UNL1        0.2224
     15 F         139.6360  142.9769  171.0234 F       1  UNL1       -0.1832
     16 C         140.7409  142.7778  168.6804 C.ar    1  UNL1        0.0509
     17 N         140.6789  145.7756  158.7508 N.am    1  UNL1       -0.2666
     18 C         140.8675  144.9941  160.0172 C.2     1  UNL1        0.3927
     19 O         141.1362  143.5197  159.9557 O.2     1  UNL1       -0.2238
     20 N         140.7873  145.6871  161.3451 N.am    1  UNL1       -0.1531
     21 H         140.5025  146.7434  158.7912 H       1  UNL1        0.1533
     22 H         140.6109  146.6548  161.3855 H       1  UNL1        0.3030
     23 C         142.0956  144.8072  156.8002 C.3     1  UNL1        0.0263
     24 C         140.7591  145.0827  157.4229 C.3     1  UNL1        0.0977
     25 C         139.5027  144.6652  156.7177 C.ar    1  UNL1       -0.0044
     26 C         138.8419  143.3654  157.0692 C.ar    1  UNL1       -0.0027
     27 C         137.5855  142.9479  156.3640 C.ar    1  UNL1       -0.0003
     28 C         136.9900  143.8303  155.3073 C.ar    1  UNL1       -0.0000
     29 C         137.6509  145.1301  154.9557 C.ar    1  UNL1       -0.0003
     30 C         138.9072  145.5476  155.6610 C.ar    1  UNL1       -0.0027
@<TRIPOS>BOND
     1    24    23    1
     2    24    17    1
     3    17    18   am
     4    18    19    2
     5    18    20   am
     6    20     1    1
     7     1     2    2
     8     2     3    1
     9     3     4    2
    10     4     5    1
    11     5     6    2
    12     6    10    1
    13    10    11   ar
    14    11    12   ar
    15    12    13   ar
    16    13    14   ar
    17    14    15    1
    18    14    16   ar
    19     6     7    1
    20     7     8    1
    21     8     9    2
    22    24    25    1
    23    25    26   ar
    24    26    27   ar
    25    27    28   ar
    26    28    29   ar
    27    29    30   ar
    28     9     1    1
    29    30    25   ar
    30     7     3    1
    31    16    10   ar
    32    17    21    1
    33    20    22    1
@<TRIPOS>MOLECULE
*****
 30 33 0 0 0
SMALL
GASTEIGER

@<TRIPOS>ATOM
      1 C         139.7312  140.3258  163.5045 C.2     1  UNL1        0.3298
      2 C         138.6559  139.5252  164.1773 C.2     1  UNL1        0.1070
      3 C         138.6118  139.4371  165.6740 C.2     1  UNL1        0.1012
      4 N         137.6785  138.7290  166.6107 N.2     1  UNL1       -0.1516
      5 N         138.1329  139.0039  168.0136 N.2     1  UNL1       -0.1518
      6 C         139.3470  139.8820  167.9438 C.2     1  UNL1        0.0940
      7 C         139.6430  140.1498  166.4979 C.3     1  UNL1        0.1532
      8 C         140.7183  140.9504  165.8251 C.2     1  UNL1        0.2205
      9 N         140.7624  141.0384  164.3284 N.2     1  UNL1       -0.0400
     10 C         140.1280  140.4012  169.1145 C.ar    1  UNL1        0.0215
     11 C         139.6259  141.5865  169.8848 C.ar    1  UNL1        0.0221
     12 C         140.4069  142.1057  171.0555 C.ar    1  UNL1        0.1013
     13 N         141.6899  141.4397  171.4559 N.ar    1  UNL1       -0.2165
     14 C         142.1920  140.2545  170.6856 C.ar    1  UNL1        0.2224
     15 F         143.4750  139.5886  171.0860 F       1  UNL1       -0.1832
     16 C         141.4109  139.7353  169.5150 C.ar    1  UNL1        0.0509
     17 N         141.0074  139.9730  159.7631 N.am    1  UNL1       -0.2666
     18 C         140.9633  139.8850  161.2600 C.2     1  UNL1        0.3927
     19 O         142.1071  139.2680  162.0090 O.2     1  UNL1       -0.2238
     20 N         139.7754  140.4139  162.0076 N.am    1  UNL1       -0.1531
     21 H         140.2567  140.3780  159.2715 H       1  UNL1        0.1533
     22 H         139.0246  140.8188  161.5160 H       1  UNL1        0.3030
     23 C         142.3237  137.9724  158.7560 C.3     1  UNL1        0.0263
     24 C         142.1953  139.4442  159.0154 C.3     1  UNL1        0.0977
     25 C         143.2549  140.3870  158.5272 C.ar    1  UNL1       -0.0044
     26 C         143.9378  140.1339  157.2160 C.ar    1  UNL1       -0.0027
     27 C         144.9973  141.0768  156.7278 C.ar    1  UNL1       -0.0003
     28 C         145.3740  142.2728  157.5508 C.ar    1  UNL1       -0.0000
     29 C         144.6911  142.5260  158.8621 C.ar    1  UNL1       -0.0003
     30 C         143.6315  141.5831  159.3503 C.ar    1  UNL1       -0.0027
@<TRIPOS>BOND
     1    24    23    1
     2    24    17    1
     3    17    18   am
     4    18    19    2
     5    18    20   am
     6    20     1    1
     7     1     2    2
     8     2     3    1
     9     3     4    2
    10     4     5    1
    11     5     6    2
    12     6    10    1
    13    10    11   ar
    14    11    12   ar
    15    12    13   ar
    16    13    14   ar
    17    14    15    1
    18    14    16   ar
    19     6     7    1
    20     7     8    1
    21     8     9    2
    22    24    25    1
    23    25    26   ar
    24    26    27   ar
    25    27    28   ar
    26    28    29   ar
    27    29    30   ar
    28     9     1    1
    29    30    25   ar
    30     7     3    1
    31    16    10   ar
    32    17    21    1
    33    20    22    1
@<TRIPOS>MOLECULE
*****
 30 33 0 0 0
SMALL
GASTEIGER

@<TRIPOS>ATOM
      1 C         142.2051  139.4351  160.8013 C.2     1  UNL1        0.3298
      2 C         141.4048  140.7024  160.7432 C.2     1  UNL1        0.1070
      3 C         140.5720  141.1180  161.9194 C.2     1  UNL1        0.1012
      4 N         139.6852  142.3053  162.1520 N.2     1  UNL1       -0.1516
      5 N         139.1047  142.1874  163.5301 N.2     1  UNL1       -0.1518
      6 C         139.6327  140.9274  164.1492 C.2     1  UNL1        0.0940
      7 C         140.5395  140.2664  163.1538 C.3     1  UNL1        0.1532
      8 C         141.3399  138.9991  163.2119 C.2     1  UNL1        0.2205
      9 N         142.1727  138.5835  162.0357 N.2     1  UNL1       -0.0400
     10 C         139.3105  140.4177  165.5227 C.ar    1  UNL1        0.0215
     11 C         140.0215  140.9807  166.7176 C.ar    1  UNL1        0.0221
     12 C         139.6993  140.4710  168.0910 C.ar    1  UNL1        0.1013
     13 N         138.6662  139.3983  168.2697 N.ar    1  UNL1       -0.2165
     14 C         137.9552  138.8353  167.0749 C.ar    1  UNL1        0.2224
     15 F         136.9221  137.7626  167.2536 F       1  UNL1       -0.1832
     16 C         138.2774  139.3450  165.7014 C.ar    1  UNL1        0.0509
     17 N         143.2298  137.9096  157.2837 N.am    1  UNL1       -0.2666
     18 C         142.3969  138.3253  158.4600 C.2     1  UNL1        0.3927
     19 O         140.9230  138.0469  158.4712 O.2     1  UNL1       -0.2238
     20 N         143.0380  139.0194  159.6250 N.am    1  UNL1       -0.1531
     21 H         144.1972  138.0923  157.2763 H       1  UNL1        0.1533
     22 H         144.0053  139.2021  159.6176 H       1  UNL1        0.3030
     23 C         142.0593  138.0172  154.9668 C.3     1  UNL1        0.0263
     24 C         142.5887  137.2155  156.1187 C.3     1  UNL1        0.0977
     25 C         142.4772  135.7197  156.1056 C.ar    1  UNL1       -0.0044
     26 C         143.3386  134.8954  157.0157 C.ar    1  UNL1       -0.0027
     27 C         143.2271  133.3996  157.0026 C.ar    1  UNL1       -0.0003
     28 C         142.2540  132.7281  156.0794 C.ar    1  UNL1       -0.0000
     29 C         141.3926  133.5525  155.1693 C.ar    1  UNL1       -0.0003
     30 C         141.5041  135.0482  155.1824 C.ar    1  UNL1       -0.0027
@<TRIPOS>BOND
     1    24    23    1
     2    24    17    1
     3    17    18   am
     4    18    19    2
     5    18    20   am
     6    20     1    1
     7     1     2    2
     8     2     3    1
     9     3     4    2
    10     4     5    1
    11     5     6    2
    12     6    10    1
    13    10    11   ar
    14    11    12   ar
    15    12    13   ar
    16    13    14   ar
    17    14    15    1
    18    14    16   ar
    19     6     7    1
    20     7     8    1
    21     8     9    2
    22    24    25    1
    23    25    26   ar
    24    26    27   ar
    25    27    28   ar
    26    28    29   ar
    27    29    30   ar
    28     9     1    1
    29    30    25   ar
    30     7     3    1
    31    16    10   ar
    32    17    21    1
    33    20    22    1
@<TRIPOS>MOLECULE
*****
 30 33 0 0 0
SMALL
GASTEIGER

@<TRIPOS>ATOM
      1 C         138.5685  142.5024  163.3397 C.2     1  UNL1        0.3298
      2 C         138.4445  141.1416  163.9583 C.2     1  UNL1        0.1070
      3 C         139.0356  140.8760  165.3110 C.2     1  UNL1        0.1012
      4 N         139.0711  139.6444  166.1666 N.2     1  UNL1       -0.1516
      5 N         139.8081  139.9785  167.4297 N.2     1  UNL1       -0.1518
      6 C         140.2280  141.4165  167.3547 C.2     1  UNL1        0.0940
      7 C         139.7506  141.9712  166.0453 C.3     1  UNL1        0.1532
      8 C         139.8747  143.3321  165.4268 C.2     1  UNL1        0.2205
      9 N         139.2836  143.5977  164.0740 N.2     1  UNL1       -0.0400
     10 C         140.9914  142.1680  168.4047 C.ar    1  UNL1        0.0215
     11 C         140.3140  143.2471  169.1964 C.ar    1  UNL1        0.0221
     12 C         141.0774  143.9986  170.2464 C.ar    1  UNL1        0.1013
     13 N         142.5182  143.6710  170.5047 N.ar    1  UNL1       -0.2165
     14 C         143.1956  142.5920  169.7131 C.ar    1  UNL1        0.2224
     15 F         144.6364  142.2644  169.9714 F       1  UNL1       -0.1832
     16 C         142.4322  141.8405  168.6631 C.ar    1  UNL1        0.0509
     17 N         138.2053  142.8012  159.3990 N.am    1  UNL1       -0.2666
     18 C         138.7963  142.5355  160.7519 C.2     1  UNL1        0.3927
     19 O         140.2062  142.0372  160.8696 O.2     1  UNL1       -0.2238
     20 N         137.9775  142.7681  161.9869 N.am    1  UNL1       -0.1531
     21 H         137.2799  143.1282  159.3217 H       1  UNL1        0.1533
     22 H         137.0521  143.0952  161.9096 H       1  UNL1        0.3030
     23 C         139.1530  141.1850  157.5992 C.3     1  UNL1        0.0263
     24 C         139.0241  142.5686  158.1640 C.3     1  UNL1        0.0977
     25 C         139.7140  143.7196  157.4937 C.ar    1  UNL1       -0.0044
     26 C         140.3547  144.7946  158.3207 C.ar    1  UNL1       -0.0027
     27 C         141.0446  145.9455  157.6504 C.ar    1  UNL1       -0.0003
     28 C         141.0939  146.0215  156.1532 C.ar    1  UNL1       -0.0000
     29 C         140.4532  144.9465  155.3262 C.ar    1  UNL1       -0.0003
     30 C         139.7633  143.7956  155.9965 C.ar    1  UNL1       -0.0027
@<TRIPOS>BOND
     1    24    23    1
     2    24    17    1
     3    17    18   am
     4    18    19    2
     5    18    20   am
     6    20     1    1
     7     1     2    2
     8     2     3    1
     9     3     4    2
    10     4     5    1
    11     5     6    2
    12     6    10    1
    13    10    11   ar
    14    11    12   ar
    15    12    13   ar
    16    13    14   ar
    17    14    15    1
    18    14    16   ar
    19     6     7    1
    20     7     8    1
    21     8     9    2
    22    24    25    1
    23    25    26   ar
    24    26    27   ar
    25    27    28   ar
    26    28    29   ar
    27    29    30   ar
    28     9     1    1
    29    30    25   ar
    30     7     3    1
    31    16    10   ar
    32    17    21    1
    33    20    22    1
@<TRIPOS>MOLECULE
*****
 30 33 0 0 0
SMALL
GASTEIGER

@<TRIPOS>ATOM
      1 C         142.6905  140.2192  163.3203 C.2     1  UNL1        0.3298
      2 C         143.4750  139.1668  164.0460 C.2     1  UNL1        0.1070
      3 C         143.3453  139.0271  165.5338 C.2     1  UNL1        0.1012
      4 N         143.9874  138.0905  166.5138 N.2     1  UNL1       -0.1516
      5 N         143.4700  138.4244  167.8816 N.2     1  UNL1       -0.1518
      6 C         142.5080  139.5674  167.7469 C.2     1  UNL1        0.0940
      7 C         142.4310  139.9400  166.2959 C.3     1  UNL1        0.1532
      8 C         141.6464  140.9924  165.5702 C.2     1  UNL1        0.2205
      9 N         141.7762  141.1321  164.0824 N.2     1  UNL1       -0.0400
     10 C         141.7553  140.2229  168.8666 C.ar    1  UNL1        0.0215
     11 C         142.4852  141.0716  169.8652 C.ar    1  UNL1        0.0221
     12 C         141.7325  141.7270  170.9849 C.ar    1  UNL1        0.1013
     13 N         140.2499  141.5340  171.1060 N.ar    1  UNL1       -0.2165
     14 C         139.5201  140.6854  170.1074 C.ar    1  UNL1        0.2224
     15 F         138.0375  140.4924  170.2285 F       1  UNL1       -0.1832
     16 C         140.2728  140.0299  168.9877 C.ar    1  UNL1        0.0509
     17 N         141.9124  139.8999  159.4417 N.am    1  UNL1       -0.2666
     18 C         141.7827  139.7602  160.9296 C.2     1  UNL1        0.3927
     19 O         140.6154  139.0218  161.5146 O.2     1  UNL1       -0.2238
     20 N         142.8202  140.3589  161.8324 N.am    1  UNL1       -0.1531
     21 H         142.6785  140.3845  159.0577 H       1  UNL1        0.1533
     22 H         143.5863  140.8435  161.4484 H       1  UNL1        0.3030
     23 C         139.4895  139.8752  158.5044 C.3     1  UNL1        0.0263
     24 C         140.8748  139.3012  158.5389 C.3     1  UNL1        0.0977
     25 C         141.2227  138.1285  157.6707 C.ar    1  UNL1       -0.0044
     26 C         140.2574  137.6585  156.6232 C.ar    1  UNL1       -0.0027
     27 C         140.6053  136.4858  155.7549 C.ar    1  UNL1       -0.0003
     28 C         141.9184  135.7832  155.9341 C.ar    1  UNL1       -0.0000
     29 C         142.8836  136.2533  156.9816 C.ar    1  UNL1       -0.0003
     30 C         142.5358  137.4260  157.8499 C.ar    1  UNL1       -0.0027
@<TRIPOS>BOND
     1    24    23    1
     2    24    17    1
     3    17    18   am
     4    18    19    2
     5    18    20   am
     6    20     1    1
     7     1     2    2
     8     2     3    1
     9     3     4    2
    10     4     5    1
    11     5     6    2
    12     6    10    1
    13    10    11   ar
    14    11    12   ar
    15    12    13   ar
    16    13    14   ar
    17    14    15    1
    18    14    16   ar
    19     6     7    1
    20     7     8    1
    21     8     9    2
    22    24    25    1
    23    25    26   ar
    24    26    27   ar
    25    27    28   ar
    26    28    29   ar
    27    29    30   ar
    28     9     1    1
    29    30    25   ar
    30     7     3    1
    31    16    10   ar
    32    17    21    1
    33    20    22    1
