@<TRIPOS>MOLECULE
*****
 21 22 0 0 0
SMALL
GASTEIGER

@<TRIPOS>ATOM
      1 N         141.0222  142.9881  165.0249 N.am    1  UNL1       -0.2763
      2 C         141.7623  142.5140  166.2404 C.2     1  UNL1        0.2499
      3 O         143.2589  142.6034  166.2896 O.2     1  UNL1       -0.2699
      4 C         141.0059  141.9505  167.4067 C.ar    1  UNL1        0.0650
      5 C         140.6655  142.8283  168.5746 C.ar    1  UNL1        0.0168
      6 C         139.9090  142.2648  169.7409 C.ar    1  UNL1        0.0579
      7 CL        139.5686  143.1424  170.9087 Cl      1  UNL1       -0.0822
      8 C         139.4930  140.8236  169.7394 C.ar    1  UNL1        0.0123
      9 C         139.8334  139.9459  168.5715 C.ar    1  UNL1        0.0124
     10 C         140.5898  140.5094  167.4052 C.ar    1  UNL1        0.0621
     11 CL        140.9302  139.6317  166.2374 Cl      1  UNL1       -0.0821
     12 C         141.7786  143.5516  163.8586 C.3     1  UNL1        0.0927
     13 C         142.1728  142.8043  162.6192 C.3     1  UNL1        0.0383
     14 C         142.9115  143.7521  161.7215 C.3     1  UNL1        0.0704
     15 N         142.9739  145.0853  162.4061 N.3     1  UNL1       -0.2960
     16 C         142.2738  144.9614  163.7268 C.3     1  UNL1        0.0887
     17 H         142.5102  145.7906  161.8333 H       1  UNL1        0.1233
     18 C         139.5256  142.8988  164.9757 C.3     1  UNL1        0.0936
     19 C         138.1710  144.4168  163.3600 C.3     1  UNL1        0.0018
     20 C         138.7083  144.1325  164.7313 C.3     1  UNL1        0.0199
     21 C         138.4282  145.0820  165.8583 C.3     1  UNL1        0.0018
@<TRIPOS>BOND
     1    19    20    1
     2    20    21    1
     3    20    18    1
     4    18     1    1
     5     1     2   am
     6     2     3    2
     7     2     4    1
     8     4     5   ar
     9     5     6   ar
    10     6     7    1
    11     6     8   ar
    12     8     9   ar
    13     9    10   ar
    14    10    11    1
    15    12     1    1
    16    12    13    1
    17    13    14    1
    18    14    15    1
    19    15    16    1
    20    10     4   ar
    21    16    12    1
    22    15    17    1
@<TRIPOS>MOLECULE
*****
 21 22 0 0 0
SMALL
GASTEIGER

@<TRIPOS>ATOM
      1 N         139.8421  142.4841  162.9808 N.am    1  UNL1       -0.2763
      2 C         138.6276  141.6040  163.0034 C.2     1  UNL1        0.2499
      3 O         137.3670  142.0478  162.3221 O.2     1  UNL1       -0.2699
      4 C         138.6737  140.2802  163.7072 C.ar    1  UNL1        0.0650
      5 C         138.2148  140.1715  165.1312 C.ar    1  UNL1        0.0168
      6 C         138.2609  138.8477  165.8350 C.ar    1  UNL1        0.0579
      7 CL        137.8020  138.7389  167.2589 Cl      1  UNL1       -0.0822
      8 C         138.7659  137.6326  165.1149 C.ar    1  UNL1        0.0123
      9 C         139.2248  137.7413  163.6910 C.ar    1  UNL1        0.0124
     10 C         139.1787  139.0651  162.9871 C.ar    1  UNL1        0.0621
     11 CL        139.6377  139.1739  161.5632 Cl      1  UNL1       -0.0821
     12 C         139.7960  143.8079  162.2770 C.3     1  UNL1        0.0927
     13 C         139.6328  145.1485  162.9300 C.3     1  UNL1        0.0383
     14 C         139.6410  146.1927  161.8532 C.3     1  UNL1        0.0704
     15 N         139.8092  145.4976  160.5347 N.3     1  UNL1       -0.2960
     16 C         139.9050  144.0237  160.7966 C.3     1  UNL1        0.0887
     17 H         140.6605  145.8239  160.0774 H       1  UNL1        0.1233
     18 C         141.1027  142.0404  163.6621 C.3     1  UNL1        0.0936
     19 C         142.9639  142.9385  165.2365 C.3     1  UNL1        0.0018
     20 C         141.5145  142.6684  164.9605 C.3     1  UNL1        0.0199
     21 C         140.4769  143.0265  165.9829 C.3     1  UNL1        0.0018
@<TRIPOS>BOND
     1    19    20    1
     2    20    21    1
     3    20    18    1
     4    18     1    1
     5     1     2   am
     6     2     3    2
     7     2     4    1
     8     4     5   ar
     9     5     6   ar
    10     6     7    1
    11     6     8   ar
    12     8     9   ar
    13     9    10   ar
    14    10    11    1
    15    12     1    1
    16    12    13    1
    17    13    14    1
    18    14    15    1
    19    15    16    1
    20    10     4   ar
    21    16    12    1
    22    15    17    1
@<TRIPOS>MOLECULE
*****
 21 22 0 0 0
SMALL
GASTEIGER

@<TRIPOS>ATOM
      1 N         140.2364  140.9669  167.3281 N.am    1  UNL1       -0.2763
      2 C         140.3423  142.4490  167.1233 C.2     1  UNL1        0.2499
      3 O         140.4906  143.3608  168.3052 O.2     1  UNL1       -0.2699
      4 C         140.3000  143.0195  165.7367 C.ar    1  UNL1        0.0650
      5 C         138.9881  143.4227  165.1314 C.ar    1  UNL1        0.0168
      6 C         138.9457  143.9932  163.7447 C.ar    1  UNL1        0.0579
      7 CL        137.6339  144.3965  163.1394 Cl      1  UNL1       -0.0822
      8 C         140.2153  144.1605  162.9634 C.ar    1  UNL1        0.0123
      9 C         141.5271  143.7572  163.5688 C.ar    1  UNL1        0.0124
     10 C         141.5694  143.1867  164.9554 C.ar    1  UNL1        0.0621
     11 CL        142.8813  142.7835  165.5607 Cl      1  UNL1       -0.0821
     12 C         140.2788  140.3964  168.7147 C.3     1  UNL1        0.0927
     13 C         139.1657  140.4374  169.7194 C.3     1  UNL1        0.0383
     14 C         139.6406  139.7511  170.9658 C.3     1  UNL1        0.0704
     15 N         141.0473  139.2859  170.7314 N.3     1  UNL1       -0.2960
     16 C         141.4417  139.6848  169.3402 C.3     1  UNL1        0.0887
     17 H         141.0971  138.2717  170.8280 H       1  UNL1        0.1233
     18 C         140.0881  140.0551  166.1462 C.3     1  UNL1        0.0936
     19 C         137.9142  138.7084  166.6044 C.3     1  UNL1        0.0018
     20 C         138.7247  139.6030  165.7142 C.3     1  UNL1        0.0199
     21 C         138.1719  140.0455  164.3918 C.3     1  UNL1        0.0018
@<TRIPOS>BOND
     1    19    20    1
     2    20    21    1
     3    20    18    1
     4    18     1    1
     5     1     2   am
     6     2     3    2
     7     2     4    1
     8     4     5   ar
     9     5     6   ar
    10     6     7    1
    11     6     8   ar
    12     8     9   ar
    13     9    10   ar
    14    10    11    1
    15    12     1    1
    16    12    13    1
    17    13    14    1
    18    14    15    1
    19    15    16    1
    20    10     4   ar
    21    16    12    1
    22    15    17    1
@<TRIPOS>MOLECULE
*****
 21 22 0 0 0
SMALL
GASTEIGER

@<TRIPOS>ATOM
      1 N         140.4358  140.2240  167.3317 N.am    1  UNL1       -0.2763
      2 C         139.1307  139.6410  166.8773 C.2     1  UNL1        0.2499
      3 O         138.1825  139.0524  167.8797 O.2     1  UNL1       -0.2699
      4 C         138.7735  139.6465  165.4204 C.ar    1  UNL1        0.0650
      5 C         138.2495  140.8984  164.7814 C.ar    1  UNL1        0.0168
      6 C         137.8924  140.9039  163.3245 C.ar    1  UNL1        0.0579
      7 CL        137.3684  142.1557  162.6855 Cl      1  UNL1       -0.0822
      8 C         138.0593  139.6576  162.5067 C.ar    1  UNL1        0.0123
      9 C         138.5833  138.4058  163.1457 C.ar    1  UNL1        0.0124
     10 C         138.9404  138.4003  164.6026 C.ar    1  UNL1        0.0621
     11 CL        139.4645  137.1484  165.2416 Cl      1  UNL1       -0.0821
     12 C         140.7930  140.2185  168.7886 C.3     1  UNL1        0.0927
     13 C         140.0837  140.9740  169.8731 C.3     1  UNL1        0.0383
     14 C         140.7744  140.6790  171.1715 C.3     1  UNL1        0.0704
     15 N         141.9106  139.7411  170.8895 N.3     1  UNL1       -0.2960
     16 C         141.9220  139.4566  169.4168 C.3     1  UNL1        0.0887
     17 H         141.7799  138.8730  171.4088 H       1  UNL1        0.1233
     18 C         141.3840  140.8126  166.3293 C.3     1  UNL1        0.0936
     19 C         142.8741  138.7203  165.9401 C.3     1  UNL1        0.0018
     20 C         142.1451  139.9147  165.3997 C.3     1  UNL1        0.0199
     21 C         142.1772  140.2110  163.9296 C.3     1  UNL1        0.0018
@<TRIPOS>BOND
     1    19    20    1
     2    20    21    1
     3    20    18    1
     4    18     1    1
     5     1     2   am
     6     2     3    2
     7     2     4    1
     8     4     5   ar
     9     5     6   ar
    10     6     7    1
    11     6     8   ar
    12     8     9   ar
    13     9    10   ar
    14    10    11    1
    15    12     1    1
    16    12    13    1
    17    13    14    1
    18    14    15    1
    19    15    16    1
    20    10     4   ar
    21    16    12    1
    22    15    17    1
@<TRIPOS>MOLECULE
*****
 21 22 0 0 0
SMALL
GASTEIGER

@<TRIPOS>ATOM
      1 N         140.4289  140.0780  167.2393 N.am    1  UNL1       -0.2763
      2 C         139.1043  139.5337  166.7931 C.2     1  UNL1        0.2499
      3 O         138.1234  139.0229  167.8065 O.2     1  UNL1       -0.2699
      4 C         138.7604  139.5001  165.3334 C.ar    1  UNL1        0.0650
      5 C         138.2055  140.7232  164.6653 C.ar    1  UNL1        0.0168
      6 C         137.8617  140.6896  163.2056 C.ar    1  UNL1        0.0579
      7 CL        137.3068  141.9126  162.5375 Cl      1  UNL1       -0.0822
      8 C         138.0728  139.4331  162.4140 C.ar    1  UNL1        0.0123
      9 C         138.6277  138.2101  163.0821 C.ar    1  UNL1        0.0124
     10 C         138.9715  138.2436  164.5418 C.ar    1  UNL1        0.0621
     11 CL        139.5264  137.0206  165.2099 Cl      1  UNL1       -0.0821
     12 C         140.7727  140.1115  168.6989 C.3     1  UNL1        0.0927
     13 C         140.0274  140.8610  169.7633 C.3     1  UNL1        0.0383
     14 C         140.7163  140.6141  171.0727 C.3     1  UNL1        0.0704
     15 N         141.8873  139.7121  170.8176 N.3     1  UNL1       -0.2960
     16 C         141.9221  139.4015  169.3505 C.3     1  UNL1        0.0887
     17 H         141.7826  138.8495  171.3517 H       1  UNL1        0.1233
     18 C         141.4097  140.5888  166.2258 C.3     1  UNL1        0.0936
     19 C         140.7457  143.0840  165.9385 C.3     1  UNL1        0.0018
     20 C         141.7875  142.0404  166.2129 C.3     1  UNL1        0.0199
     21 C         143.2071  142.4482  166.4746 C.3     1  UNL1        0.0018
@<TRIPOS>BOND
     1    19    20    1
     2    20    21    1
     3    20    18    1
     4    18     1    1
     5     1     2   am
     6     2     3    2
     7     2     4    1
     8     4     5   ar
     9     5     6   ar
    10     6     7    1
    11     6     8   ar
    12     8     9   ar
    13     9    10   ar
    14    10    11    1
    15    12     1    1
    16    12    13    1
    17    13    14    1
    18    14    15    1
    19    15    16    1
    20    10     4   ar
    21    16    12    1
    22    15    17    1
@<TRIPOS>MOLECULE
*****
 21 22 0 0 0
SMALL
GASTEIGER

@<TRIPOS>ATOM
      1 N         141.8960  140.2342  165.4880 N.am    1  UNL1       -0.2763
      2 C         142.2363  139.9272  166.9163 C.2     1  UNL1        0.2499
      3 O         143.3466  138.9698  167.2337 O.2     1  UNL1       -0.2699
      4 C         141.4662  140.5774  168.0272 C.ar    1  UNL1        0.0650
      5 C         140.1786  139.9717  168.5019 C.ar    1  UNL1        0.0168
      6 C         139.4085  140.6220  169.6128 C.ar    1  UNL1        0.0579
      7 CL        138.1210  140.0163  170.0875 Cl      1  UNL1       -0.0822
      8 C         139.9260  141.8780  170.2490 C.ar    1  UNL1        0.0123
      9 C         141.2135  142.4837  169.7743 C.ar    1  UNL1        0.0124
     10 C         141.9836  141.8334  168.6634 C.ar    1  UNL1        0.0621
     11 CL        143.2712  142.4392  168.1887 Cl      1  UNL1       -0.0821
     12 C         142.6661  139.5840  164.3771 C.3     1  UNL1        0.0927
     13 C         142.1640  138.4951  163.4758 C.3     1  UNL1        0.0383
     14 C         143.2611  138.1466  162.5141 C.3     1  UNL1        0.0704
     15 N         144.4413  139.0200  162.8210 N.3     1  UNL1       -0.2960
     16 C         144.0736  139.9083  163.9724 C.3     1  UNL1        0.0887
     17 H         144.6730  139.5878  162.0060 H       1  UNL1        0.1233
     18 C         140.7857  141.1916  165.1706 C.3     1  UNL1        0.0936
     19 C         139.9667  143.5601  165.8553 C.3     1  UNL1        0.0018
     20 C         141.0201  142.6701  165.2655 C.3     1  UNL1        0.0199
     21 C         142.3080  143.2585  164.7705 C.3     1  UNL1        0.0018
@<TRIPOS>BOND
     1    19    20    1
     2    20    21    1
     3    20    18    1
     4    18     1    1
     5     1     2   am
     6     2     3    2
     7     2     4    1
     8     4     5   ar
     9     5     6   ar
    10     6     7    1
    11     6     8   ar
    12     8     9   ar
    13     9    10   ar
    14    10    11    1
    15    12     1    1
    16    12    13    1
    17    13    14    1
    18    14    15    1
    19    15    16    1
    20    10     4   ar
    21    16    12    1
    22    15    17    1
@<TRIPOS>MOLECULE
*****
 21 22 0 0 0
SMALL
GASTEIGER

@<TRIPOS>ATOM
      1 N         139.8166  141.7015  164.8124 N.am    1  UNL1       -0.2763
      2 C         139.7602  141.0840  166.1781 C.2     1  UNL1        0.2499
      3 O         138.8283  139.9394  166.4459 O.2     1  UNL1       -0.2699
      4 C         140.6357  141.6109  167.2763 C.ar    1  UNL1        0.0650
      5 C         140.1463  142.7213  168.1581 C.ar    1  UNL1        0.0168
      6 C         141.0218  143.2483  169.2562 C.ar    1  UNL1        0.0579
      7 CL        140.5325  144.3586  170.1379 Cl      1  UNL1       -0.0822
      8 C         142.3867  142.6647  169.4725 C.ar    1  UNL1        0.0123
      9 C         142.8760  141.5543  168.5907 C.ar    1  UNL1        0.0124
     10 C         142.0005  141.0274  167.4926 C.ar    1  UNL1        0.0621
     11 CL        142.4899  139.9170  166.6108 Cl      1  UNL1       -0.0821
     12 C         138.9411  141.1746  163.7143 C.3     1  UNL1        0.0927
     13 C         139.3136  140.1130  162.7222 C.3     1  UNL1        0.0383
     14 C         138.1421  139.8990  161.8102 C.3     1  UNL1        0.0704
     15 N         137.0454  140.8284  162.2386 N.3     1  UNL1       -0.2960
     16 C         137.5392  141.6168  163.4153 C.3     1  UNL1        0.0887
     17 H         136.2201  140.2910  162.5038 H       1  UNL1        0.1233
     18 C         140.7485  142.8461  164.5446 C.3     1  UNL1        0.0936
     19 C         138.9959  144.6892  165.0747 C.3     1  UNL1        0.0018
     20 C         140.1987  144.2218  164.3100 C.3     1  UNL1        0.0199
     21 C         140.8517  145.1301  163.3107 C.3     1  UNL1        0.0018
@<TRIPOS>BOND
     1    19    20    1
     2    20    21    1
     3    20    18    1
     4    18     1    1
     5     1     2   am
     6     2     3    2
     7     2     4    1
     8     4     5   ar
     9     5     6   ar
    10     6     7    1
    11     6     8   ar
    12     8     9   ar
    13     9    10   ar
    14    10    11    1
    15    12     1    1
    16    12    13    1
    17    13    14    1
    18    14    15    1
    19    15    16    1
    20    10     4   ar
    21    16    12    1
    22    15    17    1
@<TRIPOS>MOLECULE
*****
 21 22 0 0 0
SMALL
GASTEIGER

@<TRIPOS>ATOM
      1 N         141.1802  141.9808  167.2522 N.am    1  UNL1       -0.2763
      2 C         142.6545  142.1847  167.0655 C.2     1  UNL1        0.2499
      3 O         143.5145  142.5568  168.2369 O.2     1  UNL1       -0.2699
      4 C         143.2689  142.0166  165.7075 C.ar    1  UNL1        0.0650
      5 C         143.5474  143.2198  164.8561 C.ar    1  UNL1        0.0168
      6 C         144.1618  143.0516  163.4980 C.ar    1  UNL1        0.0579
      7 CL        144.4403  144.2548  162.6467 Cl      1  UNL1       -0.0822
      8 C         144.4976  141.6803  162.9914 C.ar    1  UNL1        0.0123
      9 C         144.2191  140.4771  163.8428 C.ar    1  UNL1        0.0124
     10 C         143.6047  140.6453  165.2008 C.ar    1  UNL1        0.0621
     11 CL        143.3262  139.4421  166.0522 Cl      1  UNL1       -0.0821
     12 C         140.5659  142.1490  168.6102 C.3     1  UNL1        0.0927
     13 C         140.4289  143.4395  169.3624 C.3     1  UNL1        0.0383
     14 C         139.7590  143.1443  170.6716 C.3     1  UNL1        0.0704
     15 N         139.4819  141.6712  170.7286 N.3     1  UNL1       -0.2960
     16 C         139.9805  141.0561  169.4546 C.3     1  UNL1        0.0887
     17 H         138.4787  141.5110  170.8208 H       1  UNL1        0.1233
     18 C         140.3202  141.6087  166.0808 C.3     1  UNL1        0.0936
     19 C         140.1225  142.3653  163.6033 C.3     1  UNL1        0.0018
     20 C         139.9452  142.6475  165.0658 C.3     1  UNL1        0.0199
     21 C         139.3929  143.9684  165.5132 C.3     1  UNL1        0.0018
@<TRIPOS>BOND
     1    19    20    1
     2    20    21    1
     3    20    18    1
     4    18     1    1
     5     1     2   am
     6     2     3    2
     7     2     4    1
     8     4     5   ar
     9     5     6   ar
    10     6     7    1
    11     6     8   ar
    12     8     9   ar
    13     9    10   ar
    14    10    11    1
    15    12     1    1
    16    12    13    1
    17    13    14    1
    18    14    15    1
    19    15    16    1
    20    10     4   ar
    21    16    12    1
    22    15    17    1
@<TRIPOS>MOLECULE
*****
 21 22 0 0 0
SMALL
GASTEIGER

@<TRIPOS>ATOM
      1 N         141.0863  141.0316  166.8841 N.am    1  UNL1       -0.2763
      2 C         142.3396  140.2138  166.7819 C.2     1  UNL1        0.2499
      3 O         142.9278  139.5860  168.0107 O.2     1  UNL1       -0.2699
      4 C         143.0047  140.0239  165.4509 C.ar    1  UNL1        0.0650
      5 C         144.0194  141.0188  164.9707 C.ar    1  UNL1        0.0168
      6 C         144.6845  140.8289  163.6397 C.ar    1  UNL1        0.0579
      7 CL        145.6992  141.8238  163.1595 Cl      1  UNL1       -0.0822
      8 C         144.3349  139.6439  162.7889 C.ar    1  UNL1        0.0123
      9 C         143.3203  138.6491  163.2691 C.ar    1  UNL1        0.0124
     10 C         142.6552  138.8390  164.6001 C.ar    1  UNL1        0.0621
     11 CL        141.6405  137.8440  165.0803 Cl      1  UNL1       -0.0821
     12 C         140.4212  141.2215  168.2151 C.3     1  UNL1        0.0927
     13 C         140.5204  142.4399  169.0844 C.3     1  UNL1        0.0383
     14 C         139.7006  142.1978  170.3171 C.3     1  UNL1        0.0704
     15 N         139.0947  140.8298  170.2096 N.3     1  UNL1       -0.2960
     16 C         139.5401  140.2265  168.9105 C.3     1  UNL1        0.0887
     17 H         138.0773  140.8994  170.2281 H       1  UNL1        0.1233
     18 C         140.4981  141.6594  165.6553 C.3     1  UNL1        0.0936
     19 C         138.4047  140.1457  165.3793 C.3     1  UNL1        0.0018
     20 C         139.5736  140.8683  164.7781 C.3     1  UNL1        0.0199
     21 C         139.8181  140.7999  163.2998 C.3     1  UNL1        0.0018
@<TRIPOS>BOND
     1    19    20    1
     2    20    21    1
     3    20    18    1
     4    18     1    1
     5     1     2   am
     6     2     3    2
     7     2     4    1
     8     4     5   ar
     9     5     6   ar
    10     6     7    1
    11     6     8   ar
    12     8     9   ar
    13     9    10   ar
    14    10    11    1
    15    12     1    1
    16    12    13    1
    17    13    14    1
    18    14    15    1
    19    15    16    1
    20    10     4   ar
    21    16    12    1
    22    15    17    1
