@<TRIPOS>MOLECULE
*****
 37 41 0 0 0
SMALL
GASTEIGER

@<TRIPOS>ATOM
      1 N         141.3556  136.5031  155.3553 N.ar    1  UNL1       -0.2937
      2 C         141.2248  136.8851  153.9106 C.ar    1  UNL1        0.1798
      3 N         140.3538  138.1036  153.8305 N.ar    1  UNL1       -0.2195
      4 C         139.9462  138.4747  155.2256 C.ar    1  UNL1        0.1483
      5 C         139.0914  139.5856  155.7595 C.ar    1  UNL1        0.1516
      6 N         138.8556  139.7073  157.2359 N.ar    1  UNL1       -0.2031
      7 C         139.4748  138.7181  158.1783 C.ar    1  UNL1        0.2093
      8 N         140.3298  137.6072  157.6443 N.ar    1  UNL1       -0.2003
      9 C         140.5654  137.4855  156.1679 C.ar    1  UNL1        0.1678
     10 C         143.1081  133.1320  156.1487 C.3     1  UNL1        0.0977
     11 C         142.4823  132.5432  154.9193 C.3     1  UNL1        0.0136
     12 C         142.2167  133.9736  155.2844 C.3     1  UNL1        0.0344
     13 C         142.1391  135.3424  155.8929 C.3     1  UNL1        0.1180
     14 C         142.9824  135.3468  157.1333 C.3     1  UNL1        0.1582
     15 O         143.1904  136.5126  158.0540 O.3     1  UNL1       -0.3800
     16 C         143.5814  133.9806  157.2915 C.3     1  UNL1        0.1471
     17 O         144.4933  133.5405  158.3980 O.3     1  UNL1       -0.3814
     18 H         143.7787  136.2508  158.7794 H       1  UNL1        0.2105
     19 H         144.6425  134.2802  159.0076 H       1  UNL1        0.2105
     20 C         143.9195  129.6752  157.9216 C.3     1  UNL1        0.1107
     21 N         143.1898  130.9183  157.5064 N.am    1  UNL1       -0.3026
     22 C         143.8378  131.8889  156.5640 C.2     1  UNL1        0.2240
     23 O         145.2155  131.6165  156.0369 O.2     1  UNL1       -0.2750
     24 H         142.2856  131.0971  157.8523 H       1  UNL1        0.1495
     25 N         138.4722  140.5748  154.8171 N.pl3   1  UNL1       -0.3153
     26 C         137.1468  141.1956  155.1459 C.3     1  UNL1        0.1097
     27 H         138.9356  140.8165  153.9829 H       1  UNL1        0.1483
     28 C         139.2391  138.8397  159.6546 C.1     1  UNL1       -0.0210
     29 C         139.0034  138.9613  161.1310 C.1     1  UNL1       -0.0567
     30 C         138.7677  139.0830  162.6074 C.ar    1  UNL1        0.0444
     31 C         138.4162  140.4137  163.2036 C.ar    1  UNL1        0.0107
     32 C         138.1804  140.5354  164.6799 C.ar    1  UNL1        0.0326
     33 C         138.2962  139.3263  165.5601 C.ar    1  UNL1        0.1674
     34 F         138.0604  139.4479  167.0364 F       1  UNL1       -0.2018
     35 C         138.6477  137.9955  164.9639 C.ar    1  UNL1        0.1680
     36 F         138.7635  136.7864  165.8440 F       1  UNL1       -0.2018
     37 C         138.8835  137.8738  163.4875 C.ar    1  UNL1        0.0402
@<TRIPOS>BOND
     1    20    21    1
     2    21    22   am
     3    22    23    2
     4    10    22    1
     5    10    11    1
     6    12    11    1
     7    12    13    1
     8    13     1    1
     9     1     2   ar
    10     2     3   ar
    11     3     4   ar
    12     4     5   ar
    13     5    25    1
    14    25    26    1
    15     5     6   ar
    16     6     7   ar
    17     7    28    1
    18    28    29    3
    19    29    30    1
    20    30    31   ar
    21    31    32   ar
    22    32    33   ar
    23    33    34    1
    24    33    35   ar
    25    35    36    1
    26    35    37   ar
    27     7     8   ar
    28     8     9   ar
    29    13    14    1
    30    14    15    1
    31    14    16    1
    32    16    17    1
    33    12    10    1
    34     9     1   ar
    35    16    10    1
    36     9     4   ar
    37    37    30   ar
    38    21    24    1
    39    25    27    1
    40    15    18    1
    41    17    19    1
@<TRIPOS>MOLECULE
*****
 37 41 0 0 0
SMALL
GASTEIGER

@<TRIPOS>ATOM
      1 N         143.6119  137.1380  155.8545 N.ar    1  UNL1       -0.2937
      2 C         144.4144  137.8328  154.7947 C.ar    1  UNL1        0.1798
      3 N         144.5543  139.2733  155.1890 N.ar    1  UNL1       -0.2195
      4 C         143.8382  139.4687  156.4925 C.ar    1  UNL1        0.1483
      5 C         143.6413  140.6779  157.3580 C.ar    1  UNL1        0.1516
      6 N         142.8619  140.5673  158.6349 N.ar    1  UNL1       -0.2031
      7 C         142.2795  139.2477  159.0462 C.ar    1  UNL1        0.2093
      8 N         142.4764  138.0385  158.1806 N.ar    1  UNL1       -0.2003
      9 C         143.2558  138.1490  156.9038 C.ar    1  UNL1        0.1678
     10 C         142.5188  133.4831  155.1389 C.3     1  UNL1        0.0977
     11 C         142.3457  133.8419  153.6928 C.3     1  UNL1        0.0136
     12 C         142.8004  134.8812  154.6741 C.3     1  UNL1        0.0344
     13 C         143.2321  135.6869  155.8634 C.3     1  UNL1        0.1180
     14 C         143.2174  134.7868  157.0633 C.3     1  UNL1        0.1582
     15 O         143.5798  135.1797  158.4648 O.3     1  UNL1       -0.3800
     16 C         142.7765  133.4247  156.6155 C.3     1  UNL1        0.1471
     17 O         142.6208  132.2165  157.4906 O.3     1  UNL1       -0.3814
     18 H         143.4863  134.4120  159.0502 H       1  UNL1        0.2105
     19 H         142.8504  132.4473  158.4043 H       1  UNL1        0.2105
     20 C         140.2563  130.2387  154.8143 C.3     1  UNL1        0.1107
     21 N         140.6609  131.6758  154.9597 N.am    1  UNL1       -0.3026
     22 C         142.1142  132.0460  154.9935 C.2     1  UNL1        0.2240
     23 O         143.1627  130.9792  154.8818 O.2     1  UNL1       -0.2750
     24 H         139.9728  132.3760  155.0330 H       1  UNL1        0.1495
     25 N         144.2238  141.9975  156.9467 N.pl3   1  UNL1       -0.3153
     26 C         145.7094  142.2031  156.9750 C.3     1  UNL1        0.1097
     27 H         143.6310  142.7287  156.6582 H       1  UNL1        0.1483
     28 C         141.5001  139.1371  160.3230 C.1     1  UNL1       -0.0210
     29 C         140.7207  139.0265  161.5998 C.1     1  UNL1       -0.0567
     30 C         139.9413  138.9159  162.8767 C.ar    1  UNL1        0.0444
     31 C         139.7952  137.5852  163.5533 C.ar    1  UNL1        0.0107
     32 C         139.0158  137.4746  164.8301 C.ar    1  UNL1        0.0326
     33 C         138.3824  138.6947  165.4304 C.ar    1  UNL1        0.1674
     34 F         137.6030  138.5841  166.7072 F       1  UNL1       -0.2018
     35 C         138.5285  140.0254  164.7537 C.ar    1  UNL1        0.1680
     36 F         137.8953  141.2455  165.3539 F       1  UNL1       -0.2018
     37 C         139.3080  140.1360  163.4769 C.ar    1  UNL1        0.0402
@<TRIPOS>BOND
     1    20    21    1
     2    21    22   am
     3    22    23    2
     4    10    22    1
     5    10    11    1
     6    12    11    1
     7    12    13    1
     8    13     1    1
     9     1     2   ar
    10     2     3   ar
    11     3     4   ar
    12     4     5   ar
    13     5    25    1
    14    25    26    1
    15     5     6   ar
    16     6     7   ar
    17     7    28    1
    18    28    29    3
    19    29    30    1
    20    30    31   ar
    21    31    32   ar
    22    32    33   ar
    23    33    34    1
    24    33    35   ar
    25    35    36    1
    26    35    37   ar
    27     7     8   ar
    28     8     9   ar
    29    13    14    1
    30    14    15    1
    31    14    16    1
    32    16    17    1
    33    12    10    1
    34     9     1   ar
    35    16    10    1
    36     9     4   ar
    37    37    30   ar
    38    21    24    1
    39    25    27    1
    40    15    18    1
    41    17    19    1
@<TRIPOS>MOLECULE
*****
 37 41 0 0 0
SMALL
GASTEIGER

@<TRIPOS>ATOM
      1 N         142.4926  134.6225  154.9739 N.ar    1  UNL1       -0.2937
      2 C         142.2553  134.9841  153.5376 C.ar    1  UNL1        0.1798
      3 N         142.0513  136.4681  153.4609 N.ar    1  UNL1       -0.2195
      4 C         142.1626  137.0238  154.8497 C.ar    1  UNL1        0.1483
      5 C         142.0508  138.4211  155.3836 C.ar    1  UNL1        0.1516
      6 N         142.2117  138.6777  156.8528 N.ar    1  UNL1       -0.2031
      7 C         142.4844  137.5371  157.7879 C.ar    1  UNL1        0.2093
      8 N         142.5962  136.1398  157.2539 N.ar    1  UNL1       -0.2003
      9 C         142.4353  135.8832  155.7849 C.ar    1  UNL1        0.1678
     10 C         143.7283  131.3720  156.6978 C.3     1  UNL1        0.0977
     11 C         144.8491  132.1533  157.3170 C.3     1  UNL1        0.0136
     12 C         143.8605  132.8405  156.4224 C.3     1  UNL1        0.0344
     13 C         142.7431  133.2426  155.5060 C.3     1  UNL1        0.1180
     14 C         141.9204  132.0226  155.2151 C.3     1  UNL1        0.1582
     15 O         140.7026  131.9683  154.3410 O.3     1  UNL1       -0.3800
     16 C         142.5293  130.8664  155.9517 C.3     1  UNL1        0.1471
     17 O         142.0272  129.4530  155.9435 O.3     1  UNL1       -0.3814
     18 H         140.3595  131.0613  154.3205 H       1  UNL1        0.2105
     19 H         141.2378  129.3935  155.3831 H       1  UNL1        0.2105
     20 C         144.0899  128.4215  159.3274 C.3     1  UNL1        0.1107
     21 N         143.7154  129.7411  158.7202 N.am    1  UNL1       -0.3026
     22 C         144.1029  130.0524  157.3050 C.2     1  UNL1        0.2240
     23 O         144.8649  129.0443  156.4969 O.2     1  UNL1       -0.2750
     24 H         143.2152  130.4028  159.2506 H       1  UNL1        0.1495
     25 N         141.7781  139.5618  154.4485 N.pl3   1  UNL1       -0.3153
     26 C         140.3943  139.7762  153.9105 C.3     1  UNL1        0.1097
     27 H         142.5073  140.1697  154.1878 H       1  UNL1        0.1483
     28 C         142.6453  137.7937  159.2570 C.1     1  UNL1       -0.0210
     29 C         142.8062  138.0503  160.7261 C.1     1  UNL1       -0.0567
     30 C         142.9671  138.3069  162.1952 C.ar    1  UNL1        0.0444
     31 C         141.9249  137.8232  163.1596 C.ar    1  UNL1        0.0107
     32 C         142.0858  138.0799  164.6287 C.ar    1  UNL1        0.0326
     33 C         143.2888  138.8202  165.1334 C.ar    1  UNL1        0.1674
     34 F         143.4497  139.0768  166.6025 F       1  UNL1       -0.2018
     35 C         144.3310  139.3038  164.1691 C.ar    1  UNL1        0.1680
     36 F         145.5339  140.0441  164.6738 F       1  UNL1       -0.2018
     37 C         144.1700  139.0472  162.6999 C.ar    1  UNL1        0.0402
@<TRIPOS>BOND
     1    20    21    1
     2    21    22   am
     3    22    23    2
     4    10    22    1
     5    10    11    1
     6    12    11    1
     7    12    13    1
     8    13     1    1
     9     1     2   ar
    10     2     3   ar
    11     3     4   ar
    12     4     5   ar
    13     5    25    1
    14    25    26    1
    15     5     6   ar
    16     6     7   ar
    17     7    28    1
    18    28    29    3
    19    29    30    1
    20    30    31   ar
    21    31    32   ar
    22    32    33   ar
    23    33    34    1
    24    33    35   ar
    25    35    36    1
    26    35    37   ar
    27     7     8   ar
    28     8     9   ar
    29    13    14    1
    30    14    15    1
    31    14    16    1
    32    16    17    1
    33    12    10    1
    34     9     1   ar
    35    16    10    1
    36     9     4   ar
    37    37    30   ar
    38    21    24    1
    39    25    27    1
    40    15    18    1
    41    17    19    1
@<TRIPOS>MOLECULE
*****
 37 41 0 0 0
SMALL
GASTEIGER

@<TRIPOS>ATOM
      1 N         140.7216  143.6547  160.9449 N.ar    1  UNL1       -0.2937
      2 C         140.9263  145.1351  160.8157 C.ar    1  UNL1        0.1798
      3 N         141.5659  145.4002  159.4851 N.ar    1  UNL1       -0.2195
      4 C         141.7566  144.0838  158.7919 C.ar    1  UNL1        0.1483
      5 C         142.3380  143.7280  157.4557 C.ar    1  UNL1        0.1516
      6 N         142.3976  142.2933  157.0217 N.ar    1  UNL1       -0.2031
      7 C         141.8758  141.2145  157.9239 C.ar    1  UNL1        0.2093
      8 N         141.2944  141.5704  159.2601 N.ar    1  UNL1       -0.2003
      9 C         141.2348  143.0050  159.6941 C.ar    1  UNL1        0.1678
     10 C         139.8129  141.4878  164.0342 C.3     1  UNL1        0.0977
     11 C         141.1946  140.9049  164.0035 C.3     1  UNL1        0.0136
     12 C         140.7900  141.9292  162.9852 C.3     1  UNL1        0.0344
     13 C         140.1110  142.9482  162.1187 C.3     1  UNL1        0.1180
     14 C         138.7143  143.1365  162.6322 C.3     1  UNL1        0.1582
     15 O         137.6829  144.0644  162.0620 O.3     1  UNL1       -0.3800
     16 C         138.5300  142.2339  163.8160 C.3     1  UNL1        0.1471
     17 O         137.2820  142.1008  164.6374 O.3     1  UNL1       -0.3814
     18 H         136.8649  143.9953  162.5786 H       1  UNL1        0.2105
     19 H         136.5991  142.6934  164.2862 H       1  UNL1        0.2105
     20 C         138.1494  138.6233  166.2200 C.3     1  UNL1        0.1107
     21 N         138.6226  139.4040  165.0297 N.am    1  UNL1       -0.3026
     22 C         139.3397  140.7070  165.2244 C.2     1  UNL1        0.2240
     23 O         139.5836  141.2294  166.6092 O.2     1  UNL1       -0.2750
     24 H         138.4625  139.0613  164.1208 H       1  UNL1        0.1495
     25 N         142.8598  144.8067  156.5536 N.pl3   1  UNL1       -0.3153
     26 C         142.6006  144.7405  155.0775 C.3     1  UNL1        0.1097
     27 H         143.3724  145.5582  156.9301 H       1  UNL1        0.1483
     28 C         141.9354  139.7799  157.4899 C.1     1  UNL1       -0.0210
     29 C         141.9949  138.3454  157.0560 C.1     1  UNL1       -0.0567
     30 C         142.0545  136.9107  156.6220 C.ar    1  UNL1        0.0444
     31 C         141.0557  136.3837  155.6348 C.ar    1  UNL1        0.0107
     32 C         141.1152  134.9491  155.2008 C.ar    1  UNL1        0.0326
     33 C         142.1736  134.0414  155.7541 C.ar    1  UNL1        0.1674
     34 F         142.2331  132.6068  155.3202 F       1  UNL1       -0.2018
     35 C         143.1724  134.5684  156.7414 C.ar    1  UNL1        0.1680
     36 F         144.2307  133.6608  157.2947 F       1  UNL1       -0.2018
     37 C         143.1128  136.0031  157.1753 C.ar    1  UNL1        0.0402
@<TRIPOS>BOND
     1    20    21    1
     2    21    22   am
     3    22    23    2
     4    10    22    1
     5    10    11    1
     6    12    11    1
     7    12    13    1
     8    13     1    1
     9     1     2   ar
    10     2     3   ar
    11     3     4   ar
    12     4     5   ar
    13     5    25    1
    14    25    26    1
    15     5     6   ar
    16     6     7   ar
    17     7    28    1
    18    28    29    3
    19    29    30    1
    20    30    31   ar
    21    31    32   ar
    22    32    33   ar
    23    33    34    1
    24    33    35   ar
    25    35    36    1
    26    35    37   ar
    27     7     8   ar
    28     8     9   ar
    29    13    14    1
    30    14    15    1
    31    14    16    1
    32    16    17    1
    33    12    10    1
    34     9     1   ar
    35    16    10    1
    36     9     4   ar
    37    37    30   ar
    38    21    24    1
    39    25    27    1
    40    15    18    1
    41    17    19    1
@<TRIPOS>MOLECULE
*****
 37 41 0 0 0
SMALL
GASTEIGER

@<TRIPOS>ATOM
      1 N         141.9363  141.8241  161.1778 N.ar    1  UNL1       -0.2937
      2 C         142.4723  143.2250  161.1942 C.ar    1  UNL1        0.1798
      3 N         143.3958  143.3816  160.0227 N.ar    1  UNL1       -0.2195
      4 C         143.4307  142.0776  159.2823 C.ar    1  UNL1        0.1483
      5 C         144.1673  141.6423  158.0502 C.ar    1  UNL1        0.1516
      6 N         144.0018  140.2443  157.5321 N.ar    1  UNL1       -0.2031
      7 C         143.0997  139.2817  158.2460 C.ar    1  UNL1        0.2093
      8 N         142.3631  139.7171  159.4781 N.ar    1  UNL1       -0.2003
      9 C         142.5286  141.1150  159.9962 C.ar    1  UNL1        0.1678
     10 C         140.0449  139.8896  163.9609 C.3     1  UNL1        0.0977
     11 C         141.3113  139.1503  164.2763 C.3     1  UNL1        0.0136
     12 C         141.2948  140.1771  163.1829 C.3     1  UNL1        0.0344
     13 C         140.9765  141.2357  162.1690 C.3     1  UNL1        0.1180
     14 C         139.5299  141.6025  162.3203 C.3     1  UNL1        0.1582
     15 O         138.7892  142.6222  161.5069 O.3     1  UNL1       -0.3800
     16 C         138.9541  140.7706  163.4278 C.3     1  UNL1        0.1471
     17 O         137.5366  140.8123  163.9163 O.3     1  UNL1       -0.3814
     18 H         137.8675  142.6667  161.8059 H       1  UNL1        0.2105
     19 H         137.0370  141.4667  163.4034 H       1  UNL1        0.2105
     20 C         138.1894  139.1659  167.3937 C.3     1  UNL1        0.1107
     21 N         139.0300  139.8432  166.3521 N.am    1  UNL1       -0.3026
     22 C         139.2043  139.2123  165.0025 C.2     1  UNL1        0.2240
     23 O         138.5382  137.9041  164.6943 O.2     1  UNL1       -0.2750
     24 H         139.4672  140.7018  166.5543 H       1  UNL1        0.1495
     25 N         145.0693  142.6049  157.3363 N.pl3   1  UNL1       -0.3153
     26 C         146.3150  142.1079  156.6645 C.3     1  UNL1        0.1097
     27 H         144.8438  143.5628  157.3088 H       1  UNL1        0.1483
     28 C         142.9342  137.8839  157.7278 C.1     1  UNL1       -0.0210
     29 C         142.7687  136.4860  157.2097 C.1     1  UNL1       -0.0567
     30 C         142.6033  135.0880  156.6915 C.ar    1  UNL1        0.0444
     31 C         141.7282  134.8281  155.5013 C.ar    1  UNL1        0.0107
     32 C         141.5627  133.4302  154.9831 C.ar    1  UNL1        0.0326
     33 C         142.2723  132.2922  155.6551 C.ar    1  UNL1        0.1674
     34 F         142.1068  130.8944  155.1369 F       1  UNL1       -0.2018
     35 C         143.1474  132.5522  156.8454 C.ar    1  UNL1        0.1680
     36 F         143.8569  131.4143  157.5174 F       1  UNL1       -0.2018
     37 C         143.3128  133.9502  157.3636 C.ar    1  UNL1        0.0402
@<TRIPOS>BOND
     1    20    21    1
     2    21    22   am
     3    22    23    2
     4    10    22    1
     5    10    11    1
     6    12    11    1
     7    12    13    1
     8    13     1    1
     9     1     2   ar
    10     2     3   ar
    11     3     4   ar
    12     4     5   ar
    13     5    25    1
    14    25    26    1
    15     5     6   ar
    16     6     7   ar
    17     7    28    1
    18    28    29    3
    19    29    30    1
    20    30    31   ar
    21    31    32   ar
    22    32    33   ar
    23    33    34    1
    24    33    35   ar
    25    35    36    1
    26    35    37   ar
    27     7     8   ar
    28     8     9   ar
    29    13    14    1
    30    14    15    1
    31    14    16    1
    32    16    17    1
    33    12    10    1
    34     9     1   ar
    35    16    10    1
    36     9     4   ar
    37    37    30   ar
    38    21    24    1
    39    25    27    1
    40    15    18    1
    41    17    19    1
@<TRIPOS>MOLECULE
*****
 37 41 0 0 0
SMALL
GASTEIGER

@<TRIPOS>ATOM
      1 N         142.9516  140.4549  160.3874 N.ar    1  UNL1       -0.2937
      2 C         143.4752  141.8506  160.2210 C.ar    1  UNL1        0.1798
      3 N         144.0275  141.9759  158.8320 N.ar    1  UNL1       -0.2195
      4 C         143.8453  140.6576  158.1400 C.ar    1  UNL1        0.1483
      5 C         144.1990  140.1917  156.7588 C.ar    1  UNL1        0.1516
      6 N         143.8876  138.7857  156.3388 N.ar    1  UNL1       -0.2031
      7 C         143.2226  137.8456  157.3001 C.ar    1  UNL1        0.2093
      8 N         142.8690  138.3116  158.6814 N.ar    1  UNL1       -0.2003
      9 C         143.1803  139.7175  159.1013 C.ar    1  UNL1        0.1678
     10 C         141.0238  139.7031  163.6713 C.3     1  UNL1        0.0977
     11 C         140.5644  141.1307  163.7017 C.3     1  UNL1        0.0136
     12 C         141.4453  140.6500  162.5869 C.3     1  UNL1        0.0344
     13 C         142.3116  139.8948  161.6230 C.3     1  UNL1        0.1180
     14 C         142.4255  138.4811  162.1115 C.3     1  UNL1        0.1582
     15 O         143.1994  137.3794  161.4503 O.3     1  UNL1       -0.3800
     16 C         141.6296  138.3627  163.3775 C.3     1  UNL1        0.1471
     17 O         141.4679  137.1217  164.2044 O.3     1  UNL1       -0.3814
     18 H         143.1093  136.5646  161.9688 H       1  UNL1        0.2105
     19 H         141.9612  136.3938  163.7949 H       1  UNL1        0.2105
     20 C         138.1825  138.4570  166.1461 C.3     1  UNL1        0.1107
     21 N         138.8824  138.8740  164.8865 N.am    1  UNL1       -0.3026
     22 C         140.3240  139.2862  164.9309 C.2     1  UNL1        0.2240
     23 O         141.0657  139.2815  166.2346 O.2     1  UNL1       -0.2750
     24 H         138.3956  138.8771  164.0308 H       1  UNL1        0.1495
     25 N         144.8640  141.1317  155.7975 N.pl3   1  UNL1       -0.3153
     26 C         146.2842  140.8940  155.3772 C.3     1  UNL1        0.1097
     27 H         144.3683  141.9047  155.4424 H       1  UNL1        0.1483
     28 C         142.9113  136.4397  156.8802 C.1     1  UNL1       -0.0210
     29 C         142.6000  135.0338  156.4602 C.1     1  UNL1       -0.0567
     30 C         142.2886  133.6278  156.0403 C.ar    1  UNL1        0.0444
     31 C         141.3164  133.3757  154.9262 C.ar    1  UNL1        0.0107
     32 C         141.0050  131.9698  154.5062 C.ar    1  UNL1        0.0326
     33 C         141.6658  130.8159  155.2004 C.ar    1  UNL1        0.1674
     34 F         141.3544  129.4099  154.7805 F       1  UNL1       -0.2018
     35 C         142.6380  131.0679  156.3146 C.ar    1  UNL1        0.1680
     36 F         143.2988  129.9141  157.0088 F       1  UNL1       -0.2018
     37 C         142.9494  132.4739  156.7345 C.ar    1  UNL1        0.0402
@<TRIPOS>BOND
     1    20    21    1
     2    21    22   am
     3    22    23    2
     4    10    22    1
     5    10    11    1
     6    12    11    1
     7    12    13    1
     8    13     1    1
     9     1     2   ar
    10     2     3   ar
    11     3     4   ar
    12     4     5   ar
    13     5    25    1
    14    25    26    1
    15     5     6   ar
    16     6     7   ar
    17     7    28    1
    18    28    29    3
    19    29    30    1
    20    30    31   ar
    21    31    32   ar
    22    32    33   ar
    23    33    34    1
    24    33    35   ar
    25    35    36    1
    26    35    37   ar
    27     7     8   ar
    28     8     9   ar
    29    13    14    1
    30    14    15    1
    31    14    16    1
    32    16    17    1
    33    12    10    1
    34     9     1   ar
    35    16    10    1
    36     9     4   ar
    37    37    30   ar
    38    21    24    1
    39    25    27    1
    40    15    18    1
    41    17    19    1
@<TRIPOS>MOLECULE
*****
 37 41 0 0 0
SMALL
GASTEIGER

@<TRIPOS>ATOM
      1 N         142.2476  138.4289  156.0377 N.ar    1  UNL1       -0.2937
      2 C         142.4615  139.1989  154.7683 C.ar    1  UNL1        0.1798
      3 N         142.0017  140.6081  154.9979 N.ar    1  UNL1       -0.2195
      4 C         141.5036  140.7090  156.4092 C.ar    1  UNL1        0.1483
      5 C         140.9314  141.8533  157.1922 C.ar    1  UNL1        0.1516
      6 N         140.5111  141.6508  158.6178 N.ar    1  UNL1       -0.2031
      7 C         140.6631  140.3040  159.2605 C.ar    1  UNL1        0.2093
      8 N         141.2354  139.1597  158.4774 N.ar    1  UNL1       -0.2003
      9 C         141.6556  139.3622  157.0519 C.ar    1  UNL1        0.1678
     10 C         142.9542  134.6165  155.8592 C.3     1  UNL1        0.0977
     11 C         142.6724  134.6562  154.3865 C.3     1  UNL1        0.0136
     12 C         142.5805  135.9119  155.2017 C.3     1  UNL1        0.0344
     13 C         142.5692  136.9800  156.2549 C.3     1  UNL1        0.1180
     14 C         142.9360  136.3447  157.5633 C.3     1  UNL1        0.1582
     15 O         143.0456  137.0469  158.8842 O.3     1  UNL1       -0.3800
     16 C         143.1740  134.8840  157.3188 C.3     1  UNL1        0.1471
     17 O         143.5633  133.8690  158.3522 O.3     1  UNL1       -0.3814
     18 H         143.2971  136.4085  159.5698 H       1  UNL1        0.2105
     19 H         143.6404  134.3015  159.2171 H       1  UNL1        0.2105
     20 C         144.9696  131.2020  156.0321 C.3     1  UNL1        0.1107
     21 N         144.6727  132.6711  155.9687 N.am    1  UNL1       -0.3026
     22 C         143.2511  133.1475  155.9226 C.2     1  UNL1        0.2240
     23 O         142.1265  132.1551  155.9400 O.2     1  UNL1       -0.2750
     24 H         145.4108  133.3225  155.9572 H       1  UNL1        0.1495
     25 N         140.7794  143.2002  156.5496 N.pl3   1  UNL1       -0.3153
     26 C         141.9847  143.9182  156.0188 C.3     1  UNL1        0.1097
     27 H         139.8886  143.6129  156.4762 H       1  UNL1        0.1483
     28 C         140.2428  140.1015  160.6860 C.1     1  UNL1       -0.0210
     29 C         139.8225  139.8990  162.1116 C.1     1  UNL1       -0.0567
     30 C         139.4023  139.6964  163.5373 C.ar    1  UNL1        0.0444
     31 C         139.3849  140.8579  164.4863 C.ar    1  UNL1        0.0107
     32 C         138.9647  140.6554  165.9119 C.ar    1  UNL1        0.0326
     33 C         138.5618  139.2914  166.3885 C.ar    1  UNL1        0.1674
     34 F         138.1416  139.0889  167.8141 F       1  UNL1       -0.2018
     35 C         138.5792  138.1299  165.4395 C.ar    1  UNL1        0.1680
     36 F         138.1763  136.7659  165.9161 F       1  UNL1       -0.2018
     37 C         138.9994  138.3324  164.0139 C.ar    1  UNL1        0.0402
@<TRIPOS>BOND
     1    20    21    1
     2    21    22   am
     3    22    23    2
     4    10    22    1
     5    10    11    1
     6    12    11    1
     7    12    13    1
     8    13     1    1
     9     1     2   ar
    10     2     3   ar
    11     3     4   ar
    12     4     5   ar
    13     5    25    1
    14    25    26    1
    15     5     6   ar
    16     6     7   ar
    17     7    28    1
    18    28    29    3
    19    29    30    1
    20    30    31   ar
    21    31    32   ar
    22    32    33   ar
    23    33    34    1
    24    33    35   ar
    25    35    36    1
    26    35    37   ar
    27     7     8   ar
    28     8     9   ar
    29    13    14    1
    30    14    15    1
    31    14    16    1
    32    16    17    1
    33    12    10    1
    34     9     1   ar
    35    16    10    1
    36     9     4   ar
    37    37    30   ar
    38    21    24    1
    39    25    27    1
    40    15    18    1
    41    17    19    1
@<TRIPOS>MOLECULE
*****
 37 41 0 0 0
SMALL
GASTEIGER

@<TRIPOS>ATOM
      1 N         142.9784  140.8570  155.9098 N.ar    1  UNL1       -0.2937
      2 C         142.9370  141.9128  154.8451 C.ar    1  UNL1        0.1798
      3 N         142.8567  143.2495  155.5209 N.ar    1  UNL1       -0.2195
      4 C         142.8485  143.0199  157.0032 C.ar    1  UNL1        0.1483
      5 C         142.7822  143.9662  158.1651 C.ar    1  UNL1        0.1516
      6 N         142.7912  143.4338  159.5675 N.ar    1  UNL1       -0.2031
      7 C         142.8665  141.9551  159.8078 C.ar    1  UNL1        0.2093
      8 N         142.9327  141.0088  158.6458 N.ar    1  UNL1       -0.2003
      9 C         142.9237  141.5412  157.2435 C.ar    1  UNL1        0.1678
     10 C         142.4401  137.0691  155.2561 C.3     1  UNL1        0.0977
     11 C         140.9640  137.3182  155.1615 C.3     1  UNL1        0.0136
     12 C         141.9014  138.4583  155.4288 C.3     1  UNL1        0.0344
     13 C         143.0602  139.3768  155.6809 C.3     1  UNL1        0.1180
     14 C         144.3151  138.5553  155.6640 C.3     1  UNL1        0.1582
     15 O         145.7086  139.0697  155.8729 O.3     1  UNL1       -0.3800
     16 C         143.9319  137.1289  155.4014 C.3     1  UNL1        0.1471
     17 O         144.8748  135.9667  155.3016 O.3     1  UNL1       -0.3814
     18 H         146.3374  138.3336  155.8126 H       1  UNL1        0.2105
     19 H         145.7846  136.2762  155.4339 H       1  UNL1        0.2105
     20 C         142.1321  133.1696  155.9263 C.3     1  UNL1        0.1107
     21 N         142.2066  134.6480  156.1691 N.am    1  UNL1       -0.3026
     22 C         142.3656  135.5907  155.0132 C.2     1  UNL1        0.2240
     23 O         142.4499  135.0551  153.6146 O.2     1  UNL1       -0.2750
     24 H         142.1513  134.9995  157.0871 H       1  UNL1        0.1495
     25 N         142.7070  145.4449  157.9247 N.pl3   1  UNL1       -0.3153
     26 C         141.4902  146.0388  157.2790 C.3     1  UNL1        0.1097
     27 H         143.4561  146.0256  158.1908 H       1  UNL1        0.1483
     28 C         142.8755  141.4227  161.2101 C.1     1  UNL1       -0.0210
     29 C         142.8845  140.8902  162.6124 C.1     1  UNL1       -0.0567
     30 C         142.8935  140.3578  164.0147 C.ar    1  UNL1        0.0444
     31 C         143.0175  138.8825  164.2560 C.ar    1  UNL1        0.0107
     32 C         143.0264  138.3501  165.6583 C.ar    1  UNL1        0.0326
     33 C         142.9114  139.2929  166.8193 C.ar    1  UNL1        0.1674
     34 F         142.9203  138.7605  168.2216 F       1  UNL1       -0.2018
     35 C         142.7874  140.7682  166.5780 C.ar    1  UNL1        0.1680
     36 F         142.6723  141.7110  167.7389 F       1  UNL1       -0.2018
     37 C         142.7784  141.3006  165.1757 C.ar    1  UNL1        0.0402
@<TRIPOS>BOND
     1    20    21    1
     2    21    22   am
     3    22    23    2
     4    10    22    1
     5    10    11    1
     6    12    11    1
     7    12    13    1
     8    13     1    1
     9     1     2   ar
    10     2     3   ar
    11     3     4   ar
    12     4     5   ar
    13     5    25    1
    14    25    26    1
    15     5     6   ar
    16     6     7   ar
    17     7    28    1
    18    28    29    3
    19    29    30    1
    20    30    31   ar
    21    31    32   ar
    22    32    33   ar
    23    33    34    1
    24    33    35   ar
    25    35    36    1
    26    35    37   ar
    27     7     8   ar
    28     8     9   ar
    29    13    14    1
    30    14    15    1
    31    14    16    1
    32    16    17    1
    33    12    10    1
    34     9     1   ar
    35    16    10    1
    36     9     4   ar
    37    37    30   ar
    38    21    24    1
    39    25    27    1
    40    15    18    1
    41    17    19    1
@<TRIPOS>MOLECULE
*****
 37 41 0 0 0
SMALL
GASTEIGER

@<TRIPOS>ATOM
      1 N         142.6043  145.1269  154.3717 N.ar    1  UNL1       -0.2937
      2 C         142.1655  145.8526  153.1345 C.ar    1  UNL1        0.1798
      3 N         140.9893  146.7113  153.4934 N.ar    1  UNL1       -0.2195
      4 C         140.7010  146.5164  154.9525 C.ar    1  UNL1        0.1483
      5 C         139.6586  147.1041  155.8569 C.ar    1  UNL1        0.1516
      6 N         139.6144  146.7125  157.3043 N.ar    1  UNL1       -0.2031
      7 C         140.6125  145.7332  157.8471 C.ar    1  UNL1        0.2093
      8 N         141.6550  145.1455  156.9426 N.ar    1  UNL1       -0.2003
      9 C         141.6992  145.5371  155.4953 C.ar    1  UNL1        0.1678
     10 C         145.9350  143.1401  154.2155 C.3     1  UNL1        0.0977
     11 C         146.5352  144.2536  153.4094 C.3     1  UNL1        0.0136
     12 C         145.1124  144.3474  153.8752 C.3     1  UNL1        0.0344
     13 C         143.7475  144.1605  154.4685 C.3     1  UNL1        0.1180
     14 C         143.7264  142.8378  155.1754 C.3     1  UNL1        0.1582
     15 O         142.5584  142.2490  155.9098 O.3     1  UNL1       -0.3800
     16 C         145.0784  142.2070  155.0191 C.3     1  UNL1        0.1471
     17 O         145.4997  140.8769  155.5696 O.3     1  UNL1       -0.3814
     18 H         142.8082  141.3860  156.2756 H       1  UNL1        0.2105
     19 H         144.7584  140.4763  156.0500 H       1  UNL1        0.2105
     20 C         149.4049  141.5701  155.3313 C.3     1  UNL1        0.1107
     21 N         148.1784  142.4336  155.3191 N.am    1  UNL1       -0.3026
     22 C         147.1615  142.2765  154.2277 C.2     1  UNL1        0.2240
     23 O         147.3710  141.2560  153.1485 O.2     1  UNL1       -0.2750
     24 H         148.0409  143.1035  156.0274 H       1  UNL1        0.1495
     25 N         138.6605  148.0833  155.3141 N.pl3   1  UNL1       -0.3153
     26 C         139.0906  149.4775  154.9658 C.3     1  UNL1        0.1097
     27 H         137.7230  147.8110  155.1863 H       1  UNL1        0.1483
     28 C         140.5683  145.3416  159.2944 C.1     1  UNL1       -0.0210
     29 C         140.5241  144.9500  160.7417 C.1     1  UNL1       -0.0567
     30 C         140.4798  144.5584  162.1890 C.ar    1  UNL1        0.0444
     31 C         139.3736  145.0612  163.0685 C.ar    1  UNL1        0.0107
     32 C         139.3293  144.6697  164.5158 C.ar    1  UNL1        0.0326
     33 C         140.3913  143.7752  165.0837 C.ar    1  UNL1        0.1674
     34 F         140.3470  143.3837  166.5309 F       1  UNL1       -0.2018
     35 C         141.4975  143.2724  164.2042 C.ar    1  UNL1        0.1680
     36 F         142.5594  142.3780  164.7720 F       1  UNL1       -0.2018
     37 C         141.5417  143.6640  162.7568 C.ar    1  UNL1        0.0402
@<TRIPOS>BOND
     1    20    21    1
     2    21    22   am
     3    22    23    2
     4    10    22    1
     5    10    11    1
     6    12    11    1
     7    12    13    1
     8    13     1    1
     9     1     2   ar
    10     2     3   ar
    11     3     4   ar
    12     4     5   ar
    13     5    25    1
    14    25    26    1
    15     5     6   ar
    16     6     7   ar
    17     7    28    1
    18    28    29    3
    19    29    30    1
    20    30    31   ar
    21    31    32   ar
    22    32    33   ar
    23    33    34    1
    24    33    35   ar
    25    35    36    1
    26    35    37   ar
    27     7     8   ar
    28     8     9   ar
    29    13    14    1
    30    14    15    1
    31    14    16    1
    32    16    17    1
    33    12    10    1
    34     9     1   ar
    35    16    10    1
    36     9     4   ar
    37    37    30   ar
    38    21    24    1
    39    25    27    1
    40    15    18    1
    41    17    19    1
