@<TRIPOS>MOLECULE
*****
 34 39 0 0 0
SMALL
GASTEIGER

@<TRIPOS>ATOM
      1 C         142.4361  138.4081  158.5365 C.2     1  UNL1        0.3047
      2 O         143.7579  139.0995  158.6939 O.2     1  UNL1       -0.2647
      3 N         141.2570  138.8493  159.3520 N.am    1  UNL1       -0.2647
      4 C         141.0212  139.9060  160.3902 C.3     1  UNL1        0.1391
      5 C         139.5896  139.4733  160.5054 C.3     1  UNL1        0.2052
      6 C         139.8254  138.4166  159.4672 C.3     1  UNL1        0.1391
      7 C         142.6417  135.1740  156.4003 C.ar    1  UNL1        0.2501
      8 N         141.5058  135.8908  155.7324 N.ar    1  UNL1       -0.1068
      9 N         141.2906  137.1895  156.4513 N.ar    1  UNL1       -0.1021
     10 C         142.2934  137.2754  157.5635 C.ar    1  UNL1        0.3043
     11 O         143.1284  136.0296  157.5320 O.2     1  UNL1       -0.4122
     12 C         144.2982  131.1609  155.2166 C.ar    1  UNL1        0.1387
     13 C         143.2691  131.8311  154.3554 C.ar    1  UNL1        0.0371
     14 C         142.7169  133.1688  154.7499 C.ar    1  UNL1        0.0078
     15 C         143.1939  133.8362  156.0057 C.ar    1  UNL1        0.0553
     16 C         144.2230  133.1660  156.8669 C.ar    1  UNL1        0.0078
     17 C         144.7752  131.8283  156.4724 C.ar    1  UNL1        0.0371
     18 C         144.7025  129.3374  153.4106 C.3     1  UNL1        0.2525
     19 O         144.8504  129.8232  154.8221 O.3     1  UNL1       -0.4714
     20 O         138.4105  139.9146  161.3209 O.3     1  UNL1       -0.4756
     21 C         138.3931  139.6797  162.8024 C.ar    1  UNL1        0.1385
     22 C         138.7535  138.3315  163.3522 C.ar    1  UNL1        0.0366
     23 C         138.7361  138.0966  164.8337 C.ar    1  UNL1        0.0002
     24 C         138.3583  139.2099  165.7652 C.ar    1  UNL1       -0.0059
     25 C         137.9979  140.5582  165.2152 C.ar    1  UNL1        0.0002
     26 C         138.0153  140.7930  163.7338 C.ar    1  UNL1        0.0366
     27 C         138.3409  138.9751  167.2465 C.3     1  UNL1        0.0992
     28 N         139.3223  139.6864  168.1303 N.3     1  UNL1       -0.2685
     29 C         139.2480  140.3682  169.4644 C.3     1  UNL1        0.0785
     30 C         140.7101  140.6924  169.3800 C.3     1  UNL1        0.0840
     31 C         140.6358  141.3741  170.7142 C.3     1  UNL1        0.1471
     32 O         142.0980  141.6984  170.6299 O.3     1  UNL1       -0.3534
     33 C         142.1723  141.0167  169.2957 C.3     1  UNL1        0.1471
     34 C         140.7844  140.0107  168.0460 C.3     1  UNL1        0.0785
@<TRIPOS>BOND
     1    18    19    1
     2    19    12    1
     3    12    13   ar
     4    13    14   ar
     5    14    15   ar
     6    15     7    1
     7     7     8   ar
     8     8     9   ar
     9     9    10   ar
    10    10     1    1
    11     1     2    2
    12     1     3   am
    13     3     4    1
    14     4     5    1
    15     5    20    1
    16    20    21    1
    17    21    22   ar
    18    22    23   ar
    19    23    24   ar
    20    24    27    1
    21    27    28    1
    22    28    29    1
    23    29    30    1
    24    30    31    1
    25    31    32    1
    26    32    33    1
    27    30    34    1
    28    24    25   ar
    29    25    26   ar
    30     5     6    1
    31    10    11   ar
    32    15    16   ar
    33    16    17   ar
    34    17    12   ar
    35    11     7   ar
    36     6     3    1
    37    26    21   ar
    38    34    28    1
    39    33    30    1
@<TRIPOS>MOLECULE
*****
 34 39 0 0 0
SMALL
GASTEIGER

@<TRIPOS>ATOM
      1 C         142.1961  138.5603  158.1692 C.2     1  UNL1        0.3047
      2 O         141.4338  139.7465  157.6574 O.2     1  UNL1       -0.2647
      3 N         142.2915  138.3099  159.6450 N.am    1  UNL1       -0.2647
      4 C         141.7755  138.9992  160.8733 C.3     1  UNL1        0.1391
      5 C         142.4264  137.9558  161.7322 C.3     1  UNL1        0.2052
      6 C         142.9424  137.2666  160.5039 C.3     1  UNL1        0.1391
      7 C         143.4207  135.6369  155.9289 C.ar    1  UNL1        0.2501
      8 N         144.3578  136.7322  155.5139 N.ar    1  UNL1       -0.1068
      9 N         144.0131  137.9606  156.3026 N.ar    1  UNL1       -0.1021
     10 C         142.8630  137.6245  157.2050 C.ar    1  UNL1        0.3043
     11 O         142.4969  136.1883  156.9740 O.2     1  UNL1       -0.4122
     12 C         143.3870  131.4342  154.3205 C.ar    1  UNL1        0.1387
     13 C         144.1610  131.7549  155.5647 C.ar    1  UNL1        0.0371
     14 C         144.1722  133.1558  156.1009 C.ar    1  UNL1        0.0078
     15 C         143.4095  134.2359  155.3928 C.ar    1  UNL1        0.0553
     16 C         142.6356  133.9153  154.1485 C.ar    1  UNL1        0.0078
     17 C         142.6244  132.5144  153.6123 C.ar    1  UNL1        0.0371
     18 C         144.0664  129.7201  152.4901 C.3     1  UNL1        0.2525
     19 O         143.3758  130.0334  153.7843 O.3     1  UNL1       -0.4714
     20 O         142.5218  137.7054  163.2080 O.3     1  UNL1       -0.4756
     21 C         142.6709  138.8582  164.1563 C.ar    1  UNL1        0.1385
     22 C         143.5983  139.9888  163.8224 C.ar    1  UNL1        0.0366
     23 C         143.7474  141.1416  164.7706 C.ar    1  UNL1        0.0002
     24 C         142.9691  141.1636  166.0527 C.ar    1  UNL1       -0.0059
     25 C         142.0416  140.0328  166.3866 C.ar    1  UNL1        0.0002
     26 C         141.8926  138.8802  165.4383 C.ar    1  UNL1        0.0366
     27 C         143.1181  142.3162  167.0009 C.3     1  UNL1        0.0992
     28 N         142.3959  142.3042  168.3155 N.3     1  UNL1       -0.2685
     29 C         142.7167  141.8172  169.6976 C.3     1  UNL1        0.0785
     30 C         141.3745  142.2871  170.1747 C.3     1  UNL1        0.0840
     31 C         141.6954  141.8002  171.5568 C.3     1  UNL1        0.1471
     32 O         140.3531  142.2701  172.0339 O.3     1  UNL1       -0.3534
     33 C         140.0323  142.7570  170.6518 C.3     1  UNL1        0.1471
     34 C         141.0536  142.7741  168.7927 C.3     1  UNL1        0.0785
@<TRIPOS>BOND
     1    18    19    1
     2    19    12    1
     3    12    13   ar
     4    13    14   ar
     5    14    15   ar
     6    15     7    1
     7     7     8   ar
     8     8     9   ar
     9     9    10   ar
    10    10     1    1
    11     1     2    2
    12     1     3   am
    13     3     4    1
    14     4     5    1
    15     5    20    1
    16    20    21    1
    17    21    22   ar
    18    22    23   ar
    19    23    24   ar
    20    24    27    1
    21    27    28    1
    22    28    29    1
    23    29    30    1
    24    30    31    1
    25    31    32    1
    26    32    33    1
    27    30    34    1
    28    24    25   ar
    29    25    26   ar
    30     5     6    1
    31    10    11   ar
    32    15    16   ar
    33    16    17   ar
    34    17    12   ar
    35    11     7   ar
    36     6     3    1
    37    26    21   ar
    38    34    28    1
    39    33    30    1
@<TRIPOS>MOLECULE
*****
 34 39 0 0 0
SMALL
GASTEIGER

@<TRIPOS>ATOM
      1 C         142.7870  138.8966  157.7771 C.2     1  UNL1        0.3047
      2 O         142.7105  140.1563  156.9663 O.2     1  UNL1       -0.2647
      3 N         143.1621  138.9600  159.2280 N.am    1  UNL1       -0.2647
      4 C         143.5180  140.0594  160.1844 C.3     1  UNL1        0.1391
      5 C         143.6925  139.0498  161.2800 C.3     1  UNL1        0.2052
      6 C         143.3366  137.9504  160.3236 C.3     1  UNL1        0.1391
      7 C         142.7129  135.2926  156.3381 C.ar    1  UNL1        0.2501
      8 N         141.3449  135.7819  155.9649 N.ar    1  UNL1       -0.1068
      9 N         141.2062  137.1914  156.4585 N.ar    1  UNL1       -0.1021
     10 C         142.4884  137.5734  157.1368 C.ar    1  UNL1        0.3043
     11 O         143.4197  136.3997  157.0623 O.2     1  UNL1       -0.4122
     12 C         144.4003  131.2182  155.4420 C.ar    1  UNL1        0.1387
     13 C         144.7625  131.9156  156.7197 C.ar    1  UNL1        0.0371
     14 C         144.2000  133.2737  157.0184 C.ar    1  UNL1        0.0078
     15 C         143.2754  133.9344  156.0394 C.ar    1  UNL1        0.0553
     16 C         142.9132  133.2370  154.7617 C.ar    1  UNL1        0.0078
     17 C         143.4757  131.8790  154.4630 C.ar    1  UNL1        0.0371
     18 C         144.5396  128.6764  155.9618 C.3     1  UNL1        0.2525
     19 O         144.9627  129.8601  155.1432 O.3     1  UNL1       -0.4714
     20 O         144.0676  139.1133  162.7309 O.3     1  UNL1       -0.4756
     21 C         143.0010  139.2585  163.7756 C.ar    1  UNL1        0.1385
     22 C         141.6279  139.7202  163.3866 C.ar    1  UNL1        0.0366
     23 C         140.5613  139.8653  164.4313 C.ar    1  UNL1        0.0002
     24 C         140.8679  139.5488  165.8651 C.ar    1  UNL1       -0.0059
     25 C         142.2411  139.0871  166.2542 C.ar    1  UNL1        0.0002
     26 C         143.3076  138.9419  165.2094 C.ar    1  UNL1        0.0366
     27 C         139.8015  139.6940  166.9098 C.3     1  UNL1        0.0992
     28 N         140.1062  140.3952  168.2003 N.3     1  UNL1       -0.2685
     29 C         139.8814  141.7788  168.7345 C.3     1  UNL1        0.0785
     30 C         140.5372  141.3869  170.0254 C.3     1  UNL1        0.0840
     31 C         140.3124  142.7705  170.5595 C.3     1  UNL1        0.1471
     32 O         140.9682  142.3786  171.8505 O.3     1  UNL1       -0.3534
     33 C         141.1930  140.9950  171.3163 C.3     1  UNL1        0.1471
     34 C         140.7620  140.0034  169.4913 C.3     1  UNL1        0.0785
@<TRIPOS>BOND
     1    18    19    1
     2    19    12    1
     3    12    13   ar
     4    13    14   ar
     5    14    15   ar
     6    15     7    1
     7     7     8   ar
     8     8     9   ar
     9     9    10   ar
    10    10     1    1
    11     1     2    2
    12     1     3   am
    13     3     4    1
    14     4     5    1
    15     5    20    1
    16    20    21    1
    17    21    22   ar
    18    22    23   ar
    19    23    24   ar
    20    24    27    1
    21    27    28    1
    22    28    29    1
    23    29    30    1
    24    30    31    1
    25    31    32    1
    26    32    33    1
    27    30    34    1
    28    24    25   ar
    29    25    26   ar
    30     5     6    1
    31    10    11   ar
    32    15    16   ar
    33    16    17   ar
    34    17    12   ar
    35    11     7   ar
    36     6     3    1
    37    26    21   ar
    38    34    28    1
    39    33    30    1
@<TRIPOS>MOLECULE
*****
 34 39 0 0 0
SMALL
GASTEIGER

@<TRIPOS>ATOM
      1 C         139.2034  143.1854  160.3172 C.2     1  UNL1        0.3047
      2 O         139.6093  144.4837  159.6850 O.2     1  UNL1       -0.2647
      3 N         139.0959  141.9451  159.4806 N.am    1  UNL1       -0.2647
      4 C         139.3074  141.6217  158.0312 C.3     1  UNL1        0.1391
      5 C         138.9439  140.1910  158.2973 C.3     1  UNL1        0.2052
      6 C         138.7324  140.5143  159.7467 C.3     1  UNL1        0.1391
      7 C         139.0604  142.6221  164.1548 C.ar    1  UNL1        0.2501
      8 N         137.8314  143.4544  163.9380 N.ar    1  UNL1       -0.1068
      9 N         137.7354  143.7667  162.4741 N.ar    1  UNL1       -0.1021
     10 C         138.9050  143.1274  161.7861 C.ar    1  UNL1        0.3043
     11 O         139.7239  142.4200  162.8249 O.2     1  UNL1       -0.4122
     12 C         140.5033  141.0140  168.1023 C.ar    1  UNL1        0.1387
     13 C         139.6778  140.1489  167.1966 C.ar    1  UNL1        0.0371
     14 C         139.1969  140.6849  165.8808 C.ar    1  UNL1        0.0078
     15 C         139.5413  142.0861  165.4707 C.ar    1  UNL1        0.0553
     16 C         140.3668  142.9512  166.3764 C.ar    1  UNL1        0.0078
     17 C         140.8477  142.4152  167.6922 C.ar    1  UNL1        0.0371
     18 C         140.0022  140.1904  170.5149 C.3     1  UNL1        0.2525
     19 O         140.9843  140.4780  169.4181 O.3     1  UNL1       -0.4714
     20 O         138.8365  138.9507  157.4607 O.3     1  UNL1       -0.4756
     21 C         140.0509  138.1059  157.2124 C.ar    1  UNL1        0.1385
     22 C         141.2814  138.2973  158.0486 C.ar    1  UNL1        0.0366
     23 C         142.4958  137.4525  157.8003 C.ar    1  UNL1        0.0002
     24 C         142.4797  136.4163  156.7158 C.ar    1  UNL1       -0.0059
     25 C         141.2491  136.2249  155.8796 C.ar    1  UNL1        0.0002
     26 C         140.0347  137.0697  156.1279 C.ar    1  UNL1        0.0366
     27 C         143.6940  135.5715  156.4675 C.3     1  UNL1        0.0992
     28 N         143.6240  134.0847  156.6530 N.3     1  UNL1       -0.2685
     29 C         144.4218  133.0729  157.4211 C.3     1  UNL1        0.0785
     30 C         143.5251  131.9820  156.9154 C.3     1  UNL1        0.0840
     31 C         144.3229  130.9702  157.6835 C.3     1  UNL1        0.1471
     32 O         143.4261  129.8792  157.1777 O.3     1  UNL1       -0.3534
     33 C         142.6284  130.8910  156.4096 C.3     1  UNL1        0.1471
     34 C         142.7273  132.9937  156.1472 C.3     1  UNL1        0.0785
@<TRIPOS>BOND
     1    18    19    1
     2    19    12    1
     3    12    13   ar
     4    13    14   ar
     5    14    15   ar
     6    15     7    1
     7     7     8   ar
     8     8     9   ar
     9     9    10   ar
    10    10     1    1
    11     1     2    2
    12     1     3   am
    13     3     4    1
    14     4     5    1
    15     5    20    1
    16    20    21    1
    17    21    22   ar
    18    22    23   ar
    19    23    24   ar
    20    24    27    1
    21    27    28    1
    22    28    29    1
    23    29    30    1
    24    30    31    1
    25    31    32    1
    26    32    33    1
    27    30    34    1
    28    24    25   ar
    29    25    26   ar
    30     5     6    1
    31    10    11   ar
    32    15    16   ar
    33    16    17   ar
    34    17    12   ar
    35    11     7   ar
    36     6     3    1
    37    26    21   ar
    38    34    28    1
    39    33    30    1
@<TRIPOS>MOLECULE
*****
 34 39 0 0 0
SMALL
GASTEIGER

@<TRIPOS>ATOM
      1 C         139.1217  142.6684  159.7688 C.2     1  UNL1        0.3047
      2 O         139.4364  144.1328  159.6868 O.2     1  UNL1       -0.2647
      3 N         138.3162  142.0127  158.6867 N.am    1  UNL1       -0.2647
      4 C         137.6748  142.4768  157.4127 C.3     1  UNL1        0.1391
      5 C         137.1771  141.0852  157.1562 C.3     1  UNL1        0.2052
      6 C         137.8185  140.6211  158.4302 C.3     1  UNL1        0.1391
      7 C         139.8047  140.8787  163.1445 C.ar    1  UNL1        0.2501
      8 N         140.9309  140.3529  162.3046 N.ar    1  UNL1       -0.1068
      9 N         140.8121  140.9593  160.9379 N.ar    1  UNL1       -0.1021
     10 C         139.6125  141.8599  160.9330 C.ar    1  UNL1        0.3043
     11 O         138.9899  141.8101  162.2969 O.2     1  UNL1       -0.4122
     12 C         139.0104  139.8435  167.4512 C.ar    1  UNL1        0.1387
     13 C         138.2099  139.1913  166.3631 C.ar    1  UNL1        0.0371
     14 C         138.4747  139.5364  164.9276 C.ar    1  UNL1        0.0078
     15 C         139.5399  140.5336  164.5801 C.ar    1  UNL1        0.0553
     16 C         140.3404  141.1858  165.6682 C.ar    1  UNL1        0.0078
     17 C         140.0756  140.8408  167.1037 C.ar    1  UNL1        0.0371
     18 C         139.1284  140.4604  169.9723 C.3     1  UNL1        0.2525
     19 O         138.7456  139.4985  168.8868 O.3     1  UNL1       -0.4714
     20 O         136.3716  140.4294  156.0741 O.3     1  UNL1       -0.4756
     21 C         134.8729  140.4657  156.1279 C.ar    1  UNL1        0.1385
     22 C         134.1063  141.2841  155.1318 C.ar    1  UNL1        0.0366
     23 C         132.6076  141.3204  155.1856 C.ar    1  UNL1        0.0002
     24 C         131.8757  140.5383  156.2357 C.ar    1  UNL1       -0.0059
     25 C         132.6425  139.7199  157.2319 C.ar    1  UNL1        0.0002
     26 C         134.1411  139.6836  157.1780 C.ar    1  UNL1        0.0366
     27 C         130.3772  140.5746  156.2896 C.3     1  UNL1        0.0992
     28 N         129.6261  139.4930  157.0081 N.3     1  UNL1       -0.2685
     29 C         129.1771  139.2732  158.4224 C.3     1  UNL1        0.0785
     30 C         128.5640  137.9635  158.0241 C.3     1  UNL1        0.0840
     31 C         128.1150  137.7437  159.4384 C.3     1  UNL1        0.1471
     32 O         127.5018  136.4339  159.0402 O.3     1  UNL1       -0.3534
     33 C         127.9508  136.6537  157.6259 C.3     1  UNL1        0.1471
     34 C         129.0130  138.1832  156.6099 C.3     1  UNL1        0.0785
@<TRIPOS>BOND
     1    18    19    1
     2    19    12    1
     3    12    13   ar
     4    13    14   ar
     5    14    15   ar
     6    15     7    1
     7     7     8   ar
     8     8     9   ar
     9     9    10   ar
    10    10     1    1
    11     1     2    2
    12     1     3   am
    13     3     4    1
    14     4     5    1
    15     5    20    1
    16    20    21    1
    17    21    22   ar
    18    22    23   ar
    19    23    24   ar
    20    24    27    1
    21    27    28    1
    22    28    29    1
    23    29    30    1
    24    30    31    1
    25    31    32    1
    26    32    33    1
    27    30    34    1
    28    24    25   ar
    29    25    26   ar
    30     5     6    1
    31    10    11   ar
    32    15    16   ar
    33    16    17   ar
    34    17    12   ar
    35    11     7   ar
    36     6     3    1
    37    26    21   ar
    38    34    28    1
    39    33    30    1
@<TRIPOS>MOLECULE
*****
 34 39 0 0 0
SMALL
GASTEIGER

@<TRIPOS>ATOM
      1 C         140.2343  138.8499  160.9007 C.2     1  UNL1        0.3047
      2 O         138.9594  139.5834  160.6063 O.2     1  UNL1       -0.2647
      3 N         141.1651  138.4852  159.7824 N.am    1  UNL1       -0.2647
      4 C         141.1624  138.6774  158.2948 C.3     1  UNL1        0.1391
      5 C         142.4815  137.9695  158.2009 C.3     1  UNL1        0.2052
      6 C         142.4842  137.7773  159.6885 C.3     1  UNL1        0.1391
      7 C         141.0021  138.6251  164.6987 C.ar    1  UNL1        0.2501
      8 N         141.2133  137.2016  164.2755 N.ar    1  UNL1       -0.1068
      9 N         140.9514  137.1125  162.8014 N.ar    1  UNL1       -0.1021
     10 C         140.5783  138.4810  162.3133 C.ar    1  UNL1        0.3043
     11 O         140.6097  139.4159  163.4860 O.2     1  UNL1       -0.4122
     12 C         141.4646  140.2400  168.8735 C.ar    1  UNL1        0.1387
     13 C         142.6534  139.6803  168.1498 C.ar    1  UNL1        0.0371
     14 C         142.4992  139.1420  166.7582 C.ar    1  UNL1        0.0078
     15 C         141.1563  139.1634  166.0903 C.ar    1  UNL1        0.0553
     16 C         139.9676  139.7231  166.8140 C.ar    1  UNL1        0.0078
     17 C         140.1217  140.2614  168.2056 C.ar    1  UNL1        0.0371
     18 C         141.8435  142.2455  170.4811 C.3     1  UNL1        0.2525
     19 O         141.6187  140.7782  170.2650 O.3     1  UNL1       -0.4714
     20 O         143.4123  137.6048  157.0826 O.3     1  UNL1       -0.4756
     21 C         143.2192  136.3186  156.3353 C.ar    1  UNL1        0.1385
     22 C         142.8913  136.3434  154.8718 C.ar    1  UNL1        0.0366
     23 C         142.6982  135.0572  154.1244 C.ar    1  UNL1        0.0002
     24 C         142.8330  133.7462  154.8407 C.ar    1  UNL1       -0.0059
     25 C         143.1608  133.7214  156.3043 C.ar    1  UNL1        0.0002
     26 C         143.3539  135.0075  157.0515 C.ar    1  UNL1        0.0366
     27 C         142.6399  132.4600  154.0934 C.3     1  UNL1        0.0992
     28 N         143.0398  131.1590  154.7239 N.3     1  UNL1       -0.2685
     29 C         144.3331  130.4205  154.9033 C.3     1  UNL1        0.0785
     30 C         143.6053  129.3191  155.6155 C.3     1  UNL1        0.0840
     31 C         144.8986  128.5806  155.7949 C.3     1  UNL1        0.1471
     32 O         144.1708  127.4791  156.5071 O.3     1  UNL1       -0.3534
     33 C         142.8775  128.2176  156.3277 C.3     1  UNL1        0.1471
     34 C         142.3120  130.0575  155.4361 C.3     1  UNL1        0.0785
@<TRIPOS>BOND
     1    18    19    1
     2    19    12    1
     3    12    13   ar
     4    13    14   ar
     5    14    15   ar
     6    15     7    1
     7     7     8   ar
     8     8     9   ar
     9     9    10   ar
    10    10     1    1
    11     1     2    2
    12     1     3   am
    13     3     4    1
    14     4     5    1
    15     5    20    1
    16    20    21    1
    17    21    22   ar
    18    22    23   ar
    19    23    24   ar
    20    24    27    1
    21    27    28    1
    22    28    29    1
    23    29    30    1
    24    30    31    1
    25    31    32    1
    26    32    33    1
    27    30    34    1
    28    24    25   ar
    29    25    26   ar
    30     5     6    1
    31    10    11   ar
    32    15    16   ar
    33    16    17   ar
    34    17    12   ar
    35    11     7   ar
    36     6     3    1
    37    26    21   ar
    38    34    28    1
    39    33    30    1
@<TRIPOS>MOLECULE
*****
 34 39 0 0 0
SMALL
GASTEIGER

@<TRIPOS>ATOM
      1 C         139.7817  139.1446  157.6766 C.2     1  UNL1        0.3047
      2 O         138.6249  139.0751  156.7242 O.2     1  UNL1       -0.2647
      3 N         139.6858  139.9890  158.9126 N.am    1  UNL1       -0.2647
      4 C         138.6344  140.8740  159.5137 C.3     1  UNL1        0.1391
      5 C         139.5502  141.1831  160.6607 C.3     1  UNL1        0.2052
      6 C         140.6016  140.2981  160.0597 C.3     1  UNL1        0.1391
      7 C         142.5616  136.5444  156.9179 C.ar    1  UNL1        0.2501
      8 N         143.3622  137.8105  156.9947 N.ar    1  UNL1       -0.1068
      9 N         142.4183  138.9386  157.2883 N.ar    1  UNL1       -0.1021
     10 C         141.0343  138.3698  157.3929 C.ar    1  UNL1        0.3043
     11 O         141.1229  136.8899  157.1640 O.2     1  UNL1       -0.4122
     12 C         144.1901  132.4311  156.0938 C.ar    1  UNL1        0.1387
     13 C         144.2532  132.9987  157.4808 C.ar    1  UNL1        0.0371
     14 C         143.7104  134.3697  157.7555 C.ar    1  UNL1        0.0078
     15 C         143.1045  135.1732  156.6432 C.ar    1  UNL1        0.0553
     16 C         143.0414  134.6056  155.2562 C.ar    1  UNL1        0.0078
     17 C         143.5842  133.2345  154.9814 C.ar    1  UNL1        0.0371
     18 C         144.2441  130.2837  154.6322 C.3     1  UNL1        0.2525
     19 O         144.7330  131.0600  155.8190 O.3     1  UNL1       -0.4714
     20 O         139.4543  142.0274  161.8967 O.3     1  UNL1       -0.4756
     21 C         139.4315  141.3780  163.2488 C.ar    1  UNL1        0.1385
     22 C         138.1394  140.8662  163.8132 C.ar    1  UNL1        0.0366
     23 C         138.1166  140.2168  165.1652 C.ar    1  UNL1        0.0002
     24 C         139.3858  140.0793  165.9527 C.ar    1  UNL1       -0.0059
     25 C         140.6779  140.5911  165.3882 C.ar    1  UNL1        0.0002
     26 C         140.7007  141.2405  164.0362 C.ar    1  UNL1        0.0366
     27 C         139.3630  139.4299  167.3046 C.3     1  UNL1        0.0992
     28 N         139.9655  140.1331  168.4847 N.3     1  UNL1       -0.2685
     29 C         139.6630  141.3966  169.2345 C.3     1  UNL1        0.0785
     30 C         140.8176  141.1276  170.1535 C.3     1  UNL1        0.0840
     31 C         140.5151  142.3911  170.9033 C.3     1  UNL1        0.1471
     32 O         141.6697  142.1221  171.8224 O.3     1  UNL1       -0.3534
     33 C         141.9722  140.8586  171.0726 C.3     1  UNL1        0.1471
     34 C         141.1201  139.8641  169.4038 C.3     1  UNL1        0.0785
@<TRIPOS>BOND
     1    18    19    1
     2    19    12    1
     3    12    13   ar
     4    13    14   ar
     5    14    15   ar
     6    15     7    1
     7     7     8   ar
     8     8     9   ar
     9     9    10   ar
    10    10     1    1
    11     1     2    2
    12     1     3   am
    13     3     4    1
    14     4     5    1
    15     5    20    1
    16    20    21    1
    17    21    22   ar
    18    22    23   ar
    19    23    24   ar
    20    24    27    1
    21    27    28    1
    22    28    29    1
    23    29    30    1
    24    30    31    1
    25    31    32    1
    26    32    33    1
    27    30    34    1
    28    24    25   ar
    29    25    26   ar
    30     5     6    1
    31    10    11   ar
    32    15    16   ar
    33    16    17   ar
    34    17    12   ar
    35    11     7   ar
    36     6     3    1
    37    26    21   ar
    38    34    28    1
    39    33    30    1
@<TRIPOS>MOLECULE
*****
 34 39 0 0 0
SMALL
GASTEIGER

@<TRIPOS>ATOM
      1 C         139.7619  145.1440  161.7079 C.2     1  UNL1        0.3047
      2 O         140.1776  146.5393  162.0693 O.2     1  UNL1       -0.2647
      3 N         139.8554  144.6783  160.2852 N.am    1  UNL1       -0.2647
      4 C         140.2991  145.2981  158.9933 C.3     1  UNL1        0.1391
      5 C         139.9877  144.0197  158.2730 C.3     1  UNL1        0.2052
      6 C         139.5439  143.3999  159.5649 C.3     1  UNL1        0.1391
      7 C         139.1564  142.7481  164.7009 C.ar    1  UNL1        0.2501
      8 N         137.7819  142.8203  164.1047 N.ar    1  UNL1       -0.1068
      9 N         137.8414  143.7265  162.9110 N.ar    1  UNL1       -0.1021
     10 C         139.2527  144.2145  162.7694 C.ar    1  UNL1        0.3043
     11 O         140.0655  143.6097  163.8757 O.2     1  UNL1       -0.4122
     12 C         140.3442  140.3647  168.3285 C.ar    1  UNL1        0.1387
     13 C         140.8588  141.7621  168.1477 C.ar    1  UNL1        0.0371
     14 C         140.4628  142.5566  166.9385 C.ar    1  UNL1        0.0078
     15 C         139.5524  141.9536  165.9102 C.ar    1  UNL1        0.0553
     16 C         139.0378  140.5563  166.0910 C.ar    1  UNL1        0.0078
     17 C         139.4337  139.7618  167.3001 C.ar    1  UNL1        0.0371
     18 C         142.0976  139.7589  170.1475 C.3     1  UNL1        0.2525
     19 O         140.7401  139.5703  169.5376 O.3     1  UNL1       -0.4714
     20 O         140.0812  143.5540  156.8502 O.3     1  UNL1       -0.4756
     21 C         138.8721  142.9896  156.1648 C.ar    1  UNL1        0.1385
     22 C         138.8135  141.5287  155.8298 C.ar    1  UNL1        0.0366
     23 C         137.6045  140.9642  155.1444 C.ar    1  UNL1        0.0002
     24 C         136.4541  141.8608  154.7939 C.ar    1  UNL1       -0.0059
     25 C         136.5128  143.3218  155.1289 C.ar    1  UNL1        0.0002
     26 C         137.7218  143.8862  155.8143 C.ar    1  UNL1        0.0366
     27 C         135.2451  141.2965  154.1085 C.3     1  UNL1        0.0992
     28 N         134.0093  140.9883  154.9008 N.3     1  UNL1       -0.2685
     29 C         133.7131  140.1930  156.1378 C.3     1  UNL1        0.0785
     30 C         132.2615  140.5525  156.0213 C.3     1  UNL1        0.0840
     31 C         131.9654  139.7572  157.2582 C.3     1  UNL1        0.1471
     32 O         130.5137  140.1167  157.1418 O.3     1  UNL1       -0.3534
     33 C         130.8098  140.9120  155.9048 C.3     1  UNL1        0.1471
     34 C         132.5576  141.3478  154.7844 C.3     1  UNL1        0.0785
@<TRIPOS>BOND
     1    18    19    1
     2    19    12    1
     3    12    13   ar
     4    13    14   ar
     5    14    15   ar
     6    15     7    1
     7     7     8   ar
     8     8     9   ar
     9     9    10   ar
    10    10     1    1
    11     1     2    2
    12     1     3   am
    13     3     4    1
    14     4     5    1
    15     5    20    1
    16    20    21    1
    17    21    22   ar
    18    22    23   ar
    19    23    24   ar
    20    24    27    1
    21    27    28    1
    22    28    29    1
    23    29    30    1
    24    30    31    1
    25    31    32    1
    26    32    33    1
    27    30    34    1
    28    24    25   ar
    29    25    26   ar
    30     5     6    1
    31    10    11   ar
    32    15    16   ar
    33    16    17   ar
    34    17    12   ar
    35    11     7   ar
    36     6     3    1
    37    26    21   ar
    38    34    28    1
    39    33    30    1
@<TRIPOS>MOLECULE
*****
 34 39 0 0 0
SMALL
GASTEIGER

@<TRIPOS>ATOM
      1 C         139.1481  140.8756  157.1534 C.2     1  UNL1        0.3047
      2 O         139.8878  142.0890  156.6730 O.2     1  UNL1       -0.2647
      3 N         139.6940  140.0668  158.2926 N.am    1  UNL1       -0.2647
      4 C         140.9067  140.1553  159.1709 C.3     1  UNL1        0.1391
      5 C         140.4660  138.9228  159.9036 C.3     1  UNL1        0.2052
      6 C         139.2533  138.8343  159.0253 C.3     1  UNL1        0.1391
      7 C         135.4981  140.1956  156.0221 C.ar    1  UNL1        0.2501
      8 N         136.2710  139.5022  154.9397 N.ar    1  UNL1       -0.1068
      9 N         137.7324  139.6725  155.2317 N.ar    1  UNL1       -0.1021
     10 C         137.8627  140.4712  156.4946 C.ar    1  UNL1        0.3043
     11 O         136.4817  140.7945  156.9832 O.2     1  UNL1       -0.4122
     12 C         131.0152  140.4368  156.3319 C.ar    1  UNL1        0.1387
     13 C         131.7769  139.4815  157.2023 C.ar    1  UNL1        0.0371
     14 C         133.2711  139.4011  157.0990 C.ar    1  UNL1        0.0078
     15 C         134.0038  140.2759  156.1254 C.ar    1  UNL1        0.0553
     16 C         133.2421  141.2312  155.2551 C.ar    1  UNL1        0.0078
     17 C         131.7479  141.3116  155.3584 C.ar    1  UNL1        0.0371
     18 C         128.7913  139.6674  157.4330 C.3     1  UNL1        0.2525
     19 O         129.5210  140.5172  156.4352 O.3     1  UNL1       -0.4714
     20 O         141.0119  138.1140  161.0428 O.3     1  UNL1       -0.4756
     21 C         140.4641  138.3022  162.4265 C.ar    1  UNL1        0.1385
     22 C         139.2400  139.1422  162.6407 C.ar    1  UNL1        0.0366
     23 C         138.6923  139.3305  164.0244 C.ar    1  UNL1        0.0002
     24 C         139.3686  138.6786  165.1939 C.ar    1  UNL1       -0.0059
     25 C         140.5928  137.8385  164.9796 C.ar    1  UNL1        0.0002
     26 C         141.1405  137.6503  163.5959 C.ar    1  UNL1        0.0366
     27 C         138.8209  138.8668  166.5775 C.3     1  UNL1        0.0992
     28 N         139.4055  139.9129  167.4797 N.3     1  UNL1       -0.2685
     29 C         140.3335  141.0765  167.2927 C.3     1  UNL1        0.0785
     30 C         140.2322  141.3924  168.7555 C.3     1  UNL1        0.0840
     31 C         141.1602  142.5559  168.5685 C.3     1  UNL1        0.1471
     32 O         141.0589  142.8719  170.0314 O.3     1  UNL1       -0.3534
     33 C         140.1308  141.7083  170.2184 C.3     1  UNL1        0.1471
     34 C         139.3041  140.2289  168.9426 C.3     1  UNL1        0.0785
@<TRIPOS>BOND
     1    18    19    1
     2    19    12    1
     3    12    13   ar
     4    13    14   ar
     5    14    15   ar
     6    15     7    1
     7     7     8   ar
     8     8     9   ar
     9     9    10   ar
    10    10     1    1
    11     1     2    2
    12     1     3   am
    13     3     4    1
    14     4     5    1
    15     5    20    1
    16    20    21    1
    17    21    22   ar
    18    22    23   ar
    19    23    24   ar
    20    24    27    1
    21    27    28    1
    22    28    29    1
    23    29    30    1
    24    30    31    1
    25    31    32    1
    26    32    33    1
    27    30    34    1
    28    24    25   ar
    29    25    26   ar
    30     5     6    1
    31    10    11   ar
    32    15    16   ar
    33    16    17   ar
    34    17    12   ar
    35    11     7   ar
    36     6     3    1
    37    26    21   ar
    38    34    28    1
    39    33    30    1
