@<TRIPOS>MOLECULE
*****
 25 28 0 0 0
SMALL
GASTEIGER

@<TRIPOS>ATOM
      1 C         143.2817  143.5230  164.5968 C.ar    1  UNL1        0.1386
      2 C         143.8894  142.8314  165.7811 C.ar    1  UNL1        0.0369
      3 C         143.0061  142.1880  166.8086 C.ar    1  UNL1        0.0043
      4 C         141.5150  142.2362  166.6517 C.ar    1  UNL1        0.0152
      5 C         140.9074  142.9278  165.4675 C.ar    1  UNL1        0.0043
      6 C         141.7907  143.5712  164.4401 C.ar    1  UNL1        0.0369
      7 C         140.6316  141.5927  167.6792 C.2     1  UNL1        0.0763
      8 N         139.9560  140.2883  167.3763 N.2     1  UNL1       -0.1836
      9 N         139.0726  139.6448  168.4038 N.am    1  UNL1       -0.2062
     10 C         138.8649  140.3058  169.7341 C.2     1  UNL1        0.2410
     11 O         137.9816  139.6624  170.7616 O.2     1  UNL1       -0.2734
     12 C         139.5406  141.6104  170.0371 C.3     1  UNL1        0.0841
     13 C         140.2163  142.9148  170.3400 C.3     1  UNL1        0.0160
     14 C         140.4240  142.2538  169.0096 C.3     1  UNL1        0.0509
     15 H         138.6291  138.7886  168.2050 H       1  UNL1        0.1772
     16 O         144.1651  144.1665  163.5694 O.3     1  UNL1       -0.4754
     17 C         144.5190  143.4250  162.3144 C.3     1  UNL1        0.2068
     18 C         145.1328  142.0589  162.3981 C.3     1  UNL1        0.0646
     19 C         144.2768  140.8400  162.2210 C.3     1  UNL1        0.0759
     20 C         141.1874  140.1288  162.9950 C.3     1  UNL1        0.0173
     21 C         142.4054  139.7328  163.7757 C.3     1  UNL1        0.0576
     22 C         142.4174  138.9404  165.0493 C.3     1  UNL1        0.0174
     23 C         143.8448  138.7775  165.4806 C.3     1  UNL1        0.0187
     24 C         144.7150  139.4693  164.4736 C.3     1  UNL1        0.0721
     25 N         143.8255  140.0597  163.4199 N.3     1  UNL1       -0.2738
@<TRIPOS>BOND
     1    21    20    1
     2    21    22    1
     3    22    23    1
     4    23    24    1
     5    24    25    1
     6    25    19    1
     7    19    18    1
     8    18    17    1
     9    17    16    1
    10    16     1    1
    11     1     2   ar
    12     2     3   ar
    13     3     4   ar
    14     4     7    1
    15     7     8    2
    16     8     9    1
    17     9    10   am
    18    10    11    2
    19    10    12    1
    20    12    13    1
    21    13    14    1
    22     4     5   ar
    23     5     6   ar
    24    25    21    1
    25     6     1   ar
    26    14     7    1
    27    14    12    1
    28     9    15    1
@<TRIPOS>MOLECULE
*****
 25 28 0 0 0
SMALL
GASTEIGER

@<TRIPOS>ATOM
      1 C         141.8374  138.2728  164.3422 C.ar    1  UNL1        0.1386
      2 C         142.9936  138.4826  165.2746 C.ar    1  UNL1        0.0369
      3 C         142.7755  139.1444  166.6029 C.ar    1  UNL1        0.0043
      4 C         141.4011  139.5964  166.9989 C.ar    1  UNL1        0.0152
      5 C         140.2449  139.3867  166.0666 C.ar    1  UNL1        0.0043
      6 C         140.4631  138.7249  164.7383 C.ar    1  UNL1        0.0369
      7 C         141.1829  140.2582  168.3272 C.2     1  UNL1        0.0763
      8 N         139.9865  139.8980  169.1571 N.2     1  UNL1       -0.1836
      9 N         139.7684  140.5597  170.4855 N.am    1  UNL1       -0.2062
     10 C         140.7466  141.5818  170.9839 C.2     1  UNL1        0.2410
     11 O         140.5284  142.2436  172.3122 O.2     1  UNL1       -0.2734
     12 C         141.9431  141.9421  170.1539 C.3     1  UNL1        0.0841
     13 C         143.1395  142.3023  169.3240 C.3     1  UNL1        0.0160
     14 C         142.1612  141.2803  168.8256 C.3     1  UNL1        0.0509
     15 H         138.9831  140.3233  171.0302 H       1  UNL1        0.1772
     16 O         142.0555  137.6111  163.0139 O.3     1  UNL1       -0.4754
     17 C         142.7123  138.3679  161.8978 C.3     1  UNL1        0.2068
     18 C         142.3028  139.7814  161.6074 C.3     1  UNL1        0.0646
     19 C         143.2290  140.9137  161.9388 C.3     1  UNL1        0.0759
     20 C         145.7561  141.5169  163.9136 C.3     1  UNL1        0.0173
     21 C         144.3201  141.8480  164.1931 C.3     1  UNL1        0.0576
     22 C         143.7935  142.5145  165.4295 C.3     1  UNL1        0.0174
     23 C         142.3064  142.6492  165.2859 C.3     1  UNL1        0.0187
     24 C         141.9140  142.0659  163.9608 C.3     1  UNL1        0.0721
     25 N         143.1585  141.5708  163.2854 N.3     1  UNL1       -0.2738
@<TRIPOS>BOND
     1    21    20    1
     2    21    22    1
     3    22    23    1
     4    23    24    1
     5    24    25    1
     6    25    19    1
     7    19    18    1
     8    18    17    1
     9    17    16    1
    10    16     1    1
    11     1     2   ar
    12     2     3   ar
    13     3     4   ar
    14     4     7    1
    15     7     8    2
    16     8     9    1
    17     9    10   am
    18    10    11    2
    19    10    12    1
    20    12    13    1
    21    13    14    1
    22     4     5   ar
    23     5     6   ar
    24    25    21    1
    25     6     1   ar
    26    14     7    1
    27    14    12    1
    28     9    15    1
@<TRIPOS>MOLECULE
*****
 25 28 0 0 0
SMALL
GASTEIGER

@<TRIPOS>ATOM
      1 C         139.7784  138.3015  164.0615 C.ar    1  UNL1        0.1386
      2 C         141.1340  138.5081  164.6695 C.ar    1  UNL1        0.0369
      3 C         141.2616  139.1646  166.0122 C.ar    1  UNL1        0.0043
      4 C         140.0335  139.6144  166.7468 C.ar    1  UNL1        0.0152
      5 C         138.6780  139.4078  166.1388 C.ar    1  UNL1        0.0043
      6 C         138.5504  138.7513  164.7961 C.ar    1  UNL1        0.0369
      7 C         140.1611  140.2709  168.0895 C.2     1  UNL1        0.0763
      8 N         139.2264  139.8940  169.2004 N.2     1  UNL1       -0.1836
      9 N         139.3540  140.5505  170.5431 N.am    1  UNL1       -0.2062
     10 C         140.4162  141.5839  170.7748 C.2     1  UNL1        0.2410
     11 O         140.5438  142.2404  172.1175 O.2     1  UNL1       -0.2734
     12 C         141.3510  141.9609  169.6638 C.3     1  UNL1        0.0841
     13 C         142.2856  142.3377  168.5528 C.3     1  UNL1        0.0160
     14 C         141.2234  141.3044  168.3211 C.3     1  UNL1        0.0509
     15 H         138.7405  140.3032  171.2723 H       1  UNL1        0.1772
     16 O         139.6508  137.6450  162.7188 O.3     1  UNL1       -0.4754
     17 C         139.5218  138.4847  161.4826 C.3     1  UNL1        0.2068
     18 C         140.2766  139.7761  161.3710 C.3     1  UNL1        0.0646
     19 C         139.6286  141.0622  161.7903 C.3     1  UNL1        0.0759
     20 C         137.7019  142.3979  164.0605 C.3     1  UNL1        0.0173
     21 C         139.2015  142.3760  164.0788 C.3     1  UNL1        0.0576
     22 C         140.0790  142.9642  165.1437 C.3     1  UNL1        0.0174
     23 C         141.5069  142.7139  164.7585 C.3     1  UNL1        0.0187
     24 C         141.5119  141.9709  163.4554 C.3     1  UNL1        0.0721
     25 N         140.0872  141.7621  163.0353 N.3     1  UNL1       -0.2738
@<TRIPOS>BOND
     1    21    20    1
     2    21    22    1
     3    22    23    1
     4    23    24    1
     5    24    25    1
     6    25    19    1
     7    19    18    1
     8    18    17    1
     9    17    16    1
    10    16     1    1
    11     1     2   ar
    12     2     3   ar
    13     3     4   ar
    14     4     7    1
    15     7     8    2
    16     8     9    1
    17     9    10   am
    18    10    11    2
    19    10    12    1
    20    12    13    1
    21    13    14    1
    22     4     5   ar
    23     5     6   ar
    24    25    21    1
    25     6     1   ar
    26    14     7    1
    27    14    12    1
    28     9    15    1
@<TRIPOS>MOLECULE
*****
 25 28 0 0 0
SMALL
GASTEIGER

@<TRIPOS>ATOM
      1 C         138.4207  138.8423  163.4693 C.ar    1  UNL1        0.1386
      2 C         138.1628  140.2624  163.8778 C.ar    1  UNL1        0.0369
      3 C         138.5032  140.7171  165.2661 C.ar    1  UNL1        0.0043
      4 C         139.1015  139.7517  166.2459 C.ar    1  UNL1        0.0152
      5 C         139.3594  138.3317  165.8374 C.ar    1  UNL1        0.0043
      6 C         139.0190  137.8770  164.4491 C.ar    1  UNL1        0.0369
      7 C         139.4419  140.2064  167.6342 C.2     1  UNL1        0.0763
      8 N         138.7628  139.5803  168.8161 N.2     1  UNL1       -0.1836
      9 N         139.1032  140.0350  170.2044 N.am    1  UNL1       -0.2062
     10 C         140.1227  141.1158  170.4108 C.2     1  UNL1        0.2410
     11 O         140.4631  141.5705  171.7991 O.2     1  UNL1       -0.2734
     12 C         140.8018  141.7419  169.2289 C.3     1  UNL1        0.0841
     13 C         141.4808  142.3680  168.0470 C.3     1  UNL1        0.0160
     14 C         140.4614  141.2872  167.8406 C.3     1  UNL1        0.0509
     15 H         138.6575  139.6241  170.9801 H       1  UNL1        0.1772
     16 O         138.0803  138.3876  162.0810 O.3     1  UNL1       -0.4754
     17 C         139.0149  138.6817  160.9452 C.3     1  UNL1        0.2068
     18 C         140.4699  138.3367  161.0626 C.3     1  UNL1        0.0646
     19 C         141.4604  139.3895  161.4630 C.3     1  UNL1        0.0759
     20 C         141.4571  141.9942  163.4289 C.3     1  UNL1        0.0173
     21 C         141.9794  140.6309  163.7728 C.3     1  UNL1        0.0576
     22 C         142.5920  140.2253  165.0806 C.3     1  UNL1        0.0174
     23 C         142.9721  138.7774  164.9852 C.3     1  UNL1        0.0187
     24 C         142.5944  138.2881  163.6185 C.3     1  UNL1        0.0721
     25 N         141.9810  139.4335  162.8691 N.3     1  UNL1       -0.2738
@<TRIPOS>BOND
     1    21    20    1
     2    21    22    1
     3    22    23    1
     4    23    24    1
     5    24    25    1
     6    25    19    1
     7    19    18    1
     8    18    17    1
     9    17    16    1
    10    16     1    1
    11     1     2   ar
    12     2     3   ar
    13     3     4   ar
    14     4     7    1
    15     7     8    2
    16     8     9    1
    17     9    10   am
    18    10    11    2
    19    10    12    1
    20    12    13    1
    21    13    14    1
    22     4     5   ar
    23     5     6   ar
    24    25    21    1
    25     6     1   ar
    26    14     7    1
    27    14    12    1
    28     9    15    1
@<TRIPOS>MOLECULE
*****
 25 28 0 0 0
SMALL
GASTEIGER

@<TRIPOS>ATOM
      1 C         142.3617  139.3537  163.8338 C.ar    1  UNL1        0.1386
      2 C         141.8004  140.7285  164.0459 C.ar    1  UNL1        0.0369
      3 C         141.5084  141.2132  165.4351 C.ar    1  UNL1        0.0043
      4 C         141.7776  140.3231  166.6121 C.ar    1  UNL1        0.0152
      5 C         142.3388  138.9484  166.4000 C.ar    1  UNL1        0.0043
      6 C         142.6308  138.4637  165.0108 C.ar    1  UNL1        0.0369
      7 C         141.4855  140.8078  168.0013 C.2     1  UNL1        0.0763
      8 N         140.1314  140.5813  168.6055 N.2     1  UNL1       -0.1836
      9 N         139.8393  141.0661  169.9946 N.am    1  UNL1       -0.2062
     10 C         140.9014  141.7773  170.7796 C.2     1  UNL1        0.2410
     11 O         140.6093  142.2620  172.1688 O.2     1  UNL1       -0.2734
     12 C         142.2556  142.0038  170.1754 C.3     1  UNL1        0.0841
     13 C         143.6097  142.2303  169.5712 C.3     1  UNL1        0.0160
     14 C         142.5476  141.5191  168.7863 C.3     1  UNL1        0.0509
     15 H         138.9506  140.9174  170.3912 H       1  UNL1        0.1772
     16 O         142.6537  138.8690  162.4447 O.3     1  UNL1       -0.4754
     17 C         141.6839  137.9615  161.7476 C.3     1  UNL1        0.2068
     18 C         140.2956  138.4402  161.4420 C.3     1  UNL1        0.0646
     19 C         139.1279  137.8927  162.2080 C.3     1  UNL1        0.0759
     20 C         137.9047  140.8321  162.9244 C.3     1  UNL1        0.0173
     21 C         138.2615  139.7612  163.9120 C.3     1  UNL1        0.0576
     22 C         138.1187  139.8531  165.4024 C.3     1  UNL1        0.0174
     23 C         138.5927  138.5589  165.9943 C.3     1  UNL1        0.0187
     24 C         139.0285  137.6670  164.8697 C.3     1  UNL1        0.0721
     25 N         138.8238  138.4100  163.5828 N.3     1  UNL1       -0.2738
@<TRIPOS>BOND
     1    21    20    1
     2    21    22    1
     3    22    23    1
     4    23    24    1
     5    24    25    1
     6    25    19    1
     7    19    18    1
     8    18    17    1
     9    17    16    1
    10    16     1    1
    11     1     2   ar
    12     2     3   ar
    13     3     4   ar
    14     4     7    1
    15     7     8    2
    16     8     9    1
    17     9    10   am
    18    10    11    2
    19    10    12    1
    20    12    13    1
    21    13    14    1
    22     4     5   ar
    23     5     6   ar
    24    25    21    1
    25     6     1   ar
    26    14     7    1
    27    14    12    1
    28     9    15    1
@<TRIPOS>MOLECULE
*****
 25 28 0 0 0
SMALL
GASTEIGER

@<TRIPOS>ATOM
      1 C         143.9738  139.5598  164.5054 C.ar    1  UNL1        0.1386
      2 C         143.6605  141.0074  164.7433 C.ar    1  UNL1        0.0369
      3 C         143.0650  141.4409  166.0500 C.ar    1  UNL1        0.0043
      4 C         142.7828  140.4269  167.1188 C.ar    1  UNL1        0.0152
      5 C         143.0961  138.9794  166.8808 C.ar    1  UNL1        0.0043
      6 C         143.6916  138.5459  165.5741 C.ar    1  UNL1        0.0369
      7 C         142.1873  140.8604  168.4255 C.2     1  UNL1        0.0763
      8 N         143.0300  141.5922  169.4277 N.2     1  UNL1       -0.1836
      9 N         142.4345  142.0257  170.7344 N.am    1  UNL1       -0.2062
     10 C         140.9964  141.7275  171.0389 C.2     1  UNL1        0.2410
     11 O         140.4009  142.1610  172.3456 O.2     1  UNL1       -0.2734
     12 C         140.1536  140.9957  170.0367 C.3     1  UNL1        0.0841
     13 C         139.3110  140.2639  169.0345 C.3     1  UNL1        0.0160
     14 C         140.7491  140.5622  168.7300 C.3     1  UNL1        0.0509
     15 H         142.9876  142.5060  171.3921 H       1  UNL1        0.1772
     16 O         144.5693  139.1263  163.1987 O.3     1  UNL1       -0.4754
     17 C         143.9468  139.5681  161.9075 C.3     1  UNL1        0.2068
     18 C         143.1850  138.5863  161.0675 C.3     1  UNL1        0.0646
     19 C         141.6999  138.4531  161.2307 C.3     1  UNL1        0.0759
     20 C         140.4343  140.9539  162.9021 C.3     1  UNL1        0.0173
     21 C         140.5179  139.5319  163.3718 C.3     1  UNL1        0.0576
     22 C         140.0344  139.0096  164.6922 C.3     1  UNL1        0.0174
     23 C         140.3173  137.5373  164.7400 C.3     1  UNL1        0.0187
     24 C         140.9757  137.1496  163.4492 C.3     1  UNL1        0.0721
     25 N         141.0996  138.3823  162.6035 N.3     1  UNL1       -0.2738
@<TRIPOS>BOND
     1    21    20    1
     2    21    22    1
     3    22    23    1
     4    23    24    1
     5    24    25    1
     6    25    19    1
     7    19    18    1
     8    18    17    1
     9    17    16    1
    10    16     1    1
    11     1     2   ar
    12     2     3   ar
    13     3     4   ar
    14     4     7    1
    15     7     8    2
    16     8     9    1
    17     9    10   am
    18    10    11    2
    19    10    12    1
    20    12    13    1
    21    13    14    1
    22     4     5   ar
    23     5     6   ar
    24    25    21    1
    25     6     1   ar
    26    14     7    1
    27    14    12    1
    28     9    15    1
@<TRIPOS>MOLECULE
*****
 25 28 0 0 0
SMALL
GASTEIGER

@<TRIPOS>ATOM
      1 C         139.4896  138.4075  164.9682 C.ar    1  UNL1        0.1386
      2 C         138.6207  139.1805  165.9156 C.ar    1  UNL1        0.0369
      3 C         139.2436  140.0994  166.9245 C.ar    1  UNL1        0.0043
      4 C         140.7353  140.2452  166.9858 C.ar    1  UNL1        0.0152
      5 C         141.6040  139.4722  166.0384 C.ar    1  UNL1        0.0043
      6 C         140.9812  138.5534  165.0295 C.ar    1  UNL1        0.0369
      7 C         141.3581  141.1641  167.9946 C.2     1  UNL1        0.0763
      8 N         142.8022  141.5493  167.8674 N.2     1  UNL1       -0.1836
      9 N         143.4250  142.4682  168.8762 N.am    1  UNL1       -0.2062
     10 C         142.6038  143.0019  170.0122 C.2     1  UNL1        0.2410
     11 O         143.2266  143.9208  171.0211 O.2     1  UNL1       -0.2734
     12 C         141.1596  142.6167  170.1395 C.3     1  UNL1        0.0841
     13 C         139.7155  142.2315  170.2668 C.3     1  UNL1        0.0160
     14 C         140.5368  141.6978  169.1307 C.3     1  UNL1        0.0509
     15 H         144.3728  142.7210  168.7926 H       1  UNL1        0.1772
     16 O         138.8667  137.4886  163.9593 O.3     1  UNL1       -0.4754
     17 C         138.4925  138.0074  162.6026 C.3     1  UNL1        0.2068
     18 C         139.3883  138.9840  161.8998 C.3     1  UNL1        0.0646
     19 C         138.9186  140.3863  161.6491 C.3     1  UNL1        0.0759
     20 C         141.3793  141.8333  163.2306 C.3     1  UNL1        0.0173
     21 C         139.9185  142.0140  163.5189 C.3     1  UNL1        0.0576
     22 C         139.3320  142.8915  164.5849 C.3     1  UNL1        0.0174
     23 C         137.8386  142.7688  164.5167 C.3     1  UNL1        0.0187
     24 C         137.5020  141.8154  163.4087 C.3     1  UNL1        0.0721
     25 N         138.7874  141.3489  162.7920 N.3     1  UNL1       -0.2738
@<TRIPOS>BOND
     1    21    20    1
     2    21    22    1
     3    22    23    1
     4    23    24    1
     5    24    25    1
     6    25    19    1
     7    19    18    1
     8    18    17    1
     9    17    16    1
    10    16     1    1
    11     1     2   ar
    12     2     3   ar
    13     3     4   ar
    14     4     7    1
    15     7     8    2
    16     8     9    1
    17     9    10   am
    18    10    11    2
    19    10    12    1
    20    12    13    1
    21    13    14    1
    22     4     5   ar
    23     5     6   ar
    24    25    21    1
    25     6     1   ar
    26    14     7    1
    27    14    12    1
    28     9    15    1
@<TRIPOS>MOLECULE
*****
 25 28 0 0 0
SMALL
GASTEIGER

@<TRIPOS>ATOM
      1 C         143.3786  139.8614  163.9502 C.ar    1  UNL1        0.1386
      2 C         142.7950  138.8204  164.8590 C.ar    1  UNL1        0.0369
      3 C         142.3374  139.1989  166.2364 C.ar    1  UNL1        0.0043
      4 C         142.4634  140.6183  166.7050 C.ar    1  UNL1        0.0152
      5 C         143.0470  141.6592  165.7962 C.ar    1  UNL1        0.0043
      6 C         143.5046  141.2807  164.4187 C.ar    1  UNL1        0.0369
      7 C         142.0057  140.9968  168.0824 C.2     1  UNL1        0.0763
      8 N         142.9265  141.7464  168.9991 N.2     1  UNL1       -0.1836
      9 N         142.4688  142.1249  170.3765 N.am    1  UNL1       -0.2062
     10 C         141.0904  141.7538  170.8373 C.2     1  UNL1        0.2410
     11 O         140.6328  142.1323  172.2147 O.2     1  UNL1       -0.2734
     12 C         140.1696  141.0042  169.9206 C.3     1  UNL1        0.0841
     13 C         139.2489  140.2546  169.0039 C.3     1  UNL1        0.0160
     14 C         140.6273  140.6257  168.5432 C.3     1  UNL1        0.0509
     15 H         143.0731  142.6169  170.9782 H       1  UNL1        0.1772
     16 O         143.8363  139.4829  162.5727 O.3     1  UNL1       -0.4754
     17 C         142.8591  139.4704  161.4348 C.3     1  UNL1        0.2068
     18 C         141.6808  140.3984  161.4478 C.3     1  UNL1        0.0646
     19 C         140.3197  139.8774  161.8029 C.3     1  UNL1        0.0759
     20 C         138.9078  137.6323  163.7043 C.3     1  UNL1        0.0173
     21 C         139.1137  139.0771  164.0502 C.3     1  UNL1        0.0576
     22 C         138.7068  139.7439  165.3308 C.3     1  UNL1        0.0174
     23 C         139.1043  141.1879  165.2483 C.3     1  UNL1        0.0187
     24 C         139.7569  141.4137  163.9167 C.3     1  UNL1        0.0721
     25 N         139.7627  140.1092  163.1762 N.3     1  UNL1       -0.2738
@<TRIPOS>BOND
     1    21    20    1
     2    21    22    1
     3    22    23    1
     4    23    24    1
     5    24    25    1
     6    25    19    1
     7    19    18    1
     8    18    17    1
     9    17    16    1
    10    16     1    1
    11     1     2   ar
    12     2     3   ar
    13     3     4   ar
    14     4     7    1
    15     7     8    2
    16     8     9    1
    17     9    10   am
    18    10    11    2
    19    10    12    1
    20    12    13    1
    21    13    14    1
    22     4     5   ar
    23     5     6   ar
    24    25    21    1
    25     6     1   ar
    26    14     7    1
    27    14    12    1
    28     9    15    1
@<TRIPOS>MOLECULE
*****
 25 28 0 0 0
SMALL
GASTEIGER

@<TRIPOS>ATOM
      1 C         140.8940  137.9802  164.1065 C.ar    1  UNL1        0.1386
      2 C         139.6916  138.6067  164.7482 C.ar    1  UNL1        0.0369
      3 C         139.8286  139.3224  166.0593 C.ar    1  UNL1        0.0043
      4 C         141.1680  139.4117  166.7287 C.ar    1  UNL1        0.0152
      5 C         142.3704  138.7852  166.0869 C.ar    1  UNL1        0.0043
      6 C         142.2333  138.0694  164.7759 C.ar    1  UNL1        0.0369
      7 C         141.3051  140.1274  168.0397 C.2     1  UNL1        0.0763
      8 N         142.6314  140.6961  168.4487 N.2     1  UNL1       -0.1836
      9 N         142.7684  141.4119  169.7598 N.am    1  UNL1       -0.2062
     10 C         141.5791  141.5589  170.6619 C.2     1  UNL1        0.2410
     11 O         141.7161  142.2747  171.9730 O.2     1  UNL1       -0.2734
     12 C         140.2527  140.9902  170.2529 C.3     1  UNL1        0.0841
     13 C         138.9263  140.4215  169.8440 C.3     1  UNL1        0.0160
     14 C         140.1156  140.2744  168.9419 C.3     1  UNL1        0.0509
     15 H         143.6390  141.7852  170.0282 H       1  UNL1        0.1772
     16 O         140.7570  137.2644  162.7954 O.3     1  UNL1       -0.4754
     17 C         140.8134  138.0359  161.5103 C.3     1  UNL1        0.2068
     18 C         140.7802  139.5353  161.5336 C.3     1  UNL1        0.0646
     19 C         142.0206  140.3179  161.2193 C.3     1  UNL1        0.0759
     20 C         141.5629  142.1952  163.8491 C.3     1  UNL1        0.0173
     21 C         142.8191  141.4516  163.5046 C.3     1  UNL1        0.0576
     22 C         144.0856  141.4401  164.3083 C.3     1  UNL1        0.0174
     23 C         145.0787  140.5703  163.5963 C.3     1  UNL1        0.0187
     24 C         144.4260  140.0440  162.3524 C.3     1  UNL1        0.0721
     25 N         143.0295  140.5886  162.2957 N.3     1  UNL1       -0.2738
@<TRIPOS>BOND
     1    21    20    1
     2    21    22    1
     3    22    23    1
     4    23    24    1
     5    24    25    1
     6    25    19    1
     7    19    18    1
     8    18    17    1
     9    17    16    1
    10    16     1    1
    11     1     2   ar
    12     2     3   ar
    13     3     4   ar
    14     4     7    1
    15     7     8    2
    16     8     9    1
    17     9    10   am
    18    10    11    2
    19    10    12    1
    20    12    13    1
    21    13    14    1
    22     4     5   ar
    23     5     6   ar
    24    25    21    1
    25     6     1   ar
    26    14     7    1
    27    14    12    1
    28     9    15    1
