@<TRIPOS>MOLECULE
*****
 22 24 0 0 0
SMALL
GASTEIGER

@<TRIPOS>ATOM
      1 C         139.5189  139.4553  165.7935 C.ar    1  UNL1       -0.0035
      2 C         140.3345  139.7152  167.0253 C.ar    1  UNL1        0.0757
      3 N         140.5682  141.1937  167.1229 N.ar    1  UNL1       -0.3052
      4 C         139.8969  141.8475  165.9516 C.ar    1  UNL1        0.0638
      5 C         139.7925  143.2823  165.5269 C.ar    1  UNL1        0.0184
      6 C         139.0395  143.6426  164.2807 C.ar    1  UNL1        0.0129
      7 C         138.3910  142.5682  163.4591 C.ar    1  UNL1        0.0578
      8 CL        137.6380  142.9286  162.2128 Cl      1  UNL1       -0.0822
      9 C         138.4955  141.1334  163.8837 C.ar    1  UNL1        0.0126
     10 C         139.2484  140.7730  165.1299 C.ar    1  UNL1        0.0144
     11 C         141.3379  141.8953  168.2024 C.ar    1  UNL1        0.0642
     12 C         142.7980  141.6074  168.3905 C.ar    1  UNL1        0.0198
     13 C         143.5678  142.3090  169.4700 C.ar    1  UNL1        0.0311
     14 C         142.8775  143.2984  170.3614 C.ar    1  UNL1        0.1402
     15 F         143.6472  144.0000  171.4408 F       1  UNL1       -0.2042
     16 C         141.4175  143.5863  170.1732 C.ar    1  UNL1        0.0311
     17 C         140.6477  142.8847  169.0937 C.ar    1  UNL1        0.0198
     18 C         139.0551  138.1131  165.3102 C.3     1  UNL1        0.0239
     19 C         141.0392  137.2091  163.8972 C.3     1  UNL1        0.0003
     20 C         139.5851  137.5555  164.0224 C.3     1  UNL1        0.0044
     21 C         138.0615  137.3286  166.1145 C.3     1  UNL1        0.0044
     22 C         137.2896  137.9980  167.2128 C.3     1  UNL1        0.0003
@<TRIPOS>BOND
     1    19    20    1
     2    20    18    1
     3    18    21    1
     4    21    22    1
     5    18     1    1
     6     1     2   ar
     7     2     3   ar
     8     3    11    1
     9    11    12   ar
    10    12    13   ar
    11    13    14   ar
    12    14    15    1
    13    14    16   ar
    14    16    17   ar
    15     3     4   ar
    16     4     5   ar
    17     5     6   ar
    18     6     7   ar
    19     7     8    1
    20     7     9   ar
    21     9    10   ar
    22    10     1   ar
    23    17    11   ar
    24    10     4   ar
@<TRIPOS>MOLECULE
*****
 22 24 0 0 0
SMALL
GASTEIGER

@<TRIPOS>ATOM
      1 C         139.7666  139.4751  165.7488 C.ar    1  UNL1       -0.0035
      2 C         140.5818  139.7381  166.9801 C.ar    1  UNL1        0.0757
      3 N         140.7311  141.2232  167.1287 N.ar    1  UNL1       -0.3052
      4 C         140.0081  141.8781  165.9892 C.ar    1  UNL1        0.0638
      5 C         139.8156  143.3186  165.6180 C.ar    1  UNL1        0.0184
      6 C         139.0269  143.6787  164.3939 C.ar    1  UNL1        0.0129
      7 C         138.4308  142.5982  163.5411 C.ar    1  UNL1        0.0578
      8 CL        137.6421  142.9584  162.3170 Cl      1  UNL1       -0.0822
      9 C         138.6233  141.1577  163.9123 C.ar    1  UNL1        0.0126
     10 C         139.4120  140.7977  165.1363 C.ar    1  UNL1        0.0144
     11 C         141.4731  141.9295  168.2244 C.ar    1  UNL1        0.0642
     12 C         142.9352  141.6656  168.4312 C.ar    1  UNL1        0.0198
     13 C         143.6772  142.3719  169.5269 C.ar    1  UNL1        0.0311
     14 C         142.9572  143.3421  170.4158 C.ar    1  UNL1        0.1402
     15 F         143.6992  144.0485  171.5115 F       1  UNL1       -0.2042
     16 C         141.4952  143.6061  170.2090 C.ar    1  UNL1        0.0311
     17 C         140.7532  142.8998  169.1133 C.ar    1  UNL1        0.0198
     18 C         139.3747  138.1263  165.2223 C.3     1  UNL1        0.0239
     19 C         137.4680  137.9931  166.9822 C.3     1  UNL1        0.0003
     20 C         138.2189  137.3899  165.8323 C.3     1  UNL1        0.0044
     21 C         140.1384  137.5139  164.0859 C.3     1  UNL1        0.0044
     22 C         141.5490  137.9442  163.8119 C.3     1  UNL1        0.0003
@<TRIPOS>BOND
     1    19    20    1
     2    20    18    1
     3    18    21    1
     4    21    22    1
     5    18     1    1
     6     1     2   ar
     7     2     3   ar
     8     3    11    1
     9    11    12   ar
    10    12    13   ar
    11    13    14   ar
    12    14    15    1
    13    14    16   ar
    14    16    17   ar
    15     3     4   ar
    16     4     5   ar
    17     5     6   ar
    18     6     7   ar
    19     7     8    1
    20     7     9   ar
    21     9    10   ar
    22    10     1   ar
    23    17    11   ar
    24    10     4   ar
@<TRIPOS>MOLECULE
*****
 22 24 0 0 0
SMALL
GASTEIGER

@<TRIPOS>ATOM
      1 C         141.1040  141.6094  168.5041 C.ar    1  UNL1       -0.0035
      2 C         140.4798  142.7365  167.7360 C.ar    1  UNL1        0.0757
      3 N         140.8489  142.5732  166.2914 N.ar    1  UNL1       -0.3052
      4 C         141.7012  141.3451  166.1666 C.ar    1  UNL1        0.0638
      5 C         142.3540  140.6924  164.9844 C.ar    1  UNL1        0.0184
      6 C         143.1646  139.4439  165.1698 C.ar    1  UNL1        0.0129
      7 C         143.3223  138.8483  166.5374 C.ar    1  UNL1        0.0578
      8 CL        144.1329  137.5998  166.7228 Cl      1  UNL1       -0.0822
      9 C         142.6694  139.5010  167.7196 C.ar    1  UNL1        0.0126
     10 C         141.8589  140.7495  167.5342 C.ar    1  UNL1        0.0144
     11 C         140.4379  143.4789  165.1685 C.ar    1  UNL1        0.0642
     12 C         141.4806  144.1981  164.3650 C.ar    1  UNL1        0.0198
     13 C         141.0695  145.1038  163.2421 C.ar    1  UNL1        0.0311
     14 C         139.6159  145.2903  162.9228 C.ar    1  UNL1        0.1402
     15 F         139.2048  146.1960  161.8000 F       1  UNL1       -0.2042
     16 C         138.5732  144.5711  163.7263 C.ar    1  UNL1        0.0311
     17 C         138.9843  143.6654  164.8491 C.ar    1  UNL1        0.0198
     18 C         140.9929  141.3820  169.9827 C.3     1  UNL1        0.0239
     19 C         138.6565  140.2485  169.9001 C.3     1  UNL1        0.0003
     20 C         140.0189  140.3731  170.5153 C.3     1  UNL1        0.0044
     21 C         141.8557  142.1635  170.9286 C.3     1  UNL1        0.0044
     22 C         142.9925  142.9873  170.4005 C.3     1  UNL1        0.0003
@<TRIPOS>BOND
     1    19    20    1
     2    20    18    1
     3    18    21    1
     4    21    22    1
     5    18     1    1
     6     1     2   ar
     7     2     3   ar
     8     3    11    1
     9    11    12   ar
    10    12    13   ar
    11    13    14   ar
    12    14    15    1
    13    14    16   ar
    14    16    17   ar
    15     3     4   ar
    16     4     5   ar
    17     5     6   ar
    18     6     7   ar
    19     7     8    1
    20     7     9   ar
    21     9    10   ar
    22    10     1   ar
    23    17    11   ar
    24    10     4   ar
@<TRIPOS>MOLECULE
*****
 22 24 0 0 0
SMALL
GASTEIGER

@<TRIPOS>ATOM
      1 C         141.0797  141.5828  168.4639 C.ar    1  UNL1       -0.0035
      2 C         140.4603  142.7138  167.6976 C.ar    1  UNL1        0.0757
      3 N         140.8563  142.5699  166.2580 N.ar    1  UNL1       -0.3052
      4 C         141.7205  141.3500  166.1346 C.ar    1  UNL1        0.0638
      5 C         142.3995  140.7160  164.9570 C.ar    1  UNL1        0.0184
      6 C         143.2165  139.4718  165.1427 C.ar    1  UNL1        0.0129
      7 C         143.3546  138.8618  166.5061 C.ar    1  UNL1        0.0578
      8 CL        144.1717  137.6176  166.6918 Cl      1  UNL1       -0.0822
      9 C         142.6756  139.4959  167.6837 C.ar    1  UNL1        0.0126
     10 C         141.8586  140.7400  167.4980 C.ar    1  UNL1        0.0144
     11 C         140.4581  143.4852  165.1383 C.ar    1  UNL1        0.0642
     12 C         139.0080  143.6764  164.8056 C.ar    1  UNL1        0.0198
     13 C         138.6098  144.5917  163.6859 C.ar    1  UNL1        0.0311
     14 C         139.6616  145.3157  162.8989 C.ar    1  UNL1        0.1402
     15 F         139.2634  146.2310  161.7792 F       1  UNL1       -0.2042
     16 C         141.1117  145.1244  163.2316 C.ar    1  UNL1        0.0311
     17 C         141.5099  144.2091  164.3513 C.ar    1  UNL1        0.0198
     18 C         140.9441  141.3377  169.9375 C.3     1  UNL1        0.0239
     19 C         142.8612  143.0226  170.4238 C.3     1  UNL1        0.0003
     20 C         141.7322  142.1635  170.9109 C.3     1  UNL1        0.0044
     21 C         140.0206  140.2670  170.4379 C.3     1  UNL1        0.0044
     22 C         138.5742  140.2783  170.0409 C.3     1  UNL1        0.0003
@<TRIPOS>BOND
     1    19    20    1
     2    20    18    1
     3    18    21    1
     4    21    22    1
     5    18     1    1
     6     1     2   ar
     7     2     3   ar
     8     3    11    1
     9    11    12   ar
    10    12    13   ar
    11    13    14   ar
    12    14    15    1
    13    14    16   ar
    14    16    17   ar
    15     3     4   ar
    16     4     5   ar
    17     5     6   ar
    18     6     7   ar
    19     7     8    1
    20     7     9   ar
    21     9    10   ar
    22    10     1   ar
    23    17    11   ar
    24    10     4   ar
@<TRIPOS>MOLECULE
*****
 22 24 0 0 0
SMALL
GASTEIGER

@<TRIPOS>ATOM
      1 C         141.3304  141.8401  167.2471 C.ar    1  UNL1       -0.0035
      2 C         141.7313  142.8329  166.1966 C.ar    1  UNL1        0.0757
      3 N         140.8480  142.6259  165.0020 N.ar    1  UNL1       -0.3052
      4 C         139.9012  141.5051  165.3143 C.ar    1  UNL1        0.0638
      5 C         138.8061  140.8642  164.5144 C.ar    1  UNL1        0.0184
      6 C         138.0091  139.7375  165.1021 C.ar    1  UNL1        0.0129
      7 C         138.3072  139.2518  166.4896 C.ar    1  UNL1        0.0578
      8 CL        137.5102  138.1251  167.0773 Cl      1  UNL1       -0.0822
      9 C         139.4023  139.8928  167.2895 C.ar    1  UNL1        0.0126
     10 C         140.1993  141.0195  166.7018 C.ar    1  UNL1        0.0144
     11 C         140.9020  143.4031  163.7203 C.ar    1  UNL1        0.0642
     12 C         141.5369  142.7989  162.5029 C.ar    1  UNL1        0.0198
     13 C         141.5909  143.5761  161.2211 C.ar    1  UNL1        0.0311
     14 C         141.0101  144.9576  161.1566 C.ar    1  UNL1        0.1402
     15 F         141.0641  145.7349  159.8749 F       1  UNL1       -0.2042
     16 C         140.3753  145.5618  162.3740 C.ar    1  UNL1        0.0311
     17 C         140.3213  144.7846  163.6558 C.ar    1  UNL1        0.0198
     18 C         141.9515  141.6935  168.6046 C.3     1  UNL1        0.0239
     19 C         140.5755  143.5901  169.7270 C.3     1  UNL1        0.0003
     20 C         141.8511  142.8113  169.5999 C.3     1  UNL1        0.0044
     21 C         142.6728  140.4293  168.9668 C.3     1  UNL1        0.0044
     22 C         142.0450  139.4536  169.9175 C.3     1  UNL1        0.0003
@<TRIPOS>BOND
     1    19    20    1
     2    20    18    1
     3    18    21    1
     4    21    22    1
     5    18     1    1
     6     1     2   ar
     7     2     3   ar
     8     3    11    1
     9    11    12   ar
    10    12    13   ar
    11    13    14   ar
    12    14    15    1
    13    14    16   ar
    14    16    17   ar
    15     3     4   ar
    16     4     5   ar
    17     5     6   ar
    18     6     7   ar
    19     7     8    1
    20     7     9   ar
    21     9    10   ar
    22    10     1   ar
    23    17    11   ar
    24    10     4   ar
@<TRIPOS>MOLECULE
*****
 22 24 0 0 0
SMALL
GASTEIGER

@<TRIPOS>ATOM
      1 C         141.3149  141.8628  167.2418 C.ar    1  UNL1       -0.0035
      2 C         141.7255  142.8447  166.1848 C.ar    1  UNL1        0.0757
      3 N         140.8514  142.6271  164.9854 N.ar    1  UNL1       -0.3052
      4 C         139.9006  141.5107  165.3010 C.ar    1  UNL1        0.0638
      5 C         138.8110  140.8633  164.4988 C.ar    1  UNL1        0.0184
      6 C         138.0079  139.7435  165.0912 C.ar    1  UNL1        0.0129
      7 C         138.2943  139.2711  166.4858 C.ar    1  UNL1        0.0578
      8 CL        137.4911  138.1512  167.0781 Cl      1  UNL1       -0.0822
      9 C         139.3839  139.9185  167.2880 C.ar    1  UNL1        0.0126
     10 C         140.1870  141.0383  166.6956 C.ar    1  UNL1        0.0144
     11 C         140.9167  143.3916  163.6965 C.ar    1  UNL1        0.0642
     12 C         140.3281  144.7688  163.6107 C.ar    1  UNL1        0.0198
     13 C         140.3933  145.5333  162.3218 C.ar    1  UNL1        0.0311
     14 C         141.0471  144.9208  161.1187 C.ar    1  UNL1        0.1402
     15 F         141.1124  145.6854  159.8298 F       1  UNL1       -0.2042
     16 C         141.6356  143.5438  161.2045 C.ar    1  UNL1        0.0311
     17 C         141.5704  142.7793  162.4934 C.ar    1  UNL1        0.0198
     18 C         141.9250  141.7288  168.6055 C.3     1  UNL1        0.0239
     19 C         141.9788  139.4973  169.9351 C.3     1  UNL1        0.0003
     20 C         142.6311  140.4625  168.9902 C.3     1  UNL1        0.0044
     21 C         141.8290  142.8610  169.5847 C.3     1  UNL1        0.0044
     22 C         140.5025  143.5057  169.8582 C.3     1  UNL1        0.0003
@<TRIPOS>BOND
     1    19    20    1
     2    20    18    1
     3    18    21    1
     4    21    22    1
     5    18     1    1
     6     1     2   ar
     7     2     3   ar
     8     3    11    1
     9    11    12   ar
    10    12    13   ar
    11    13    14   ar
    12    14    15    1
    13    14    16   ar
    14    16    17   ar
    15     3     4   ar
    16     4     5   ar
    17     5     6   ar
    18     6     7   ar
    19     7     8    1
    20     7     9   ar
    21     9    10   ar
    22    10     1   ar
    23    17    11   ar
    24    10     4   ar
@<TRIPOS>MOLECULE
*****
 22 24 0 0 0
SMALL
GASTEIGER

@<TRIPOS>ATOM
      1 C         140.8876  141.8295  167.5670 C.ar    1  UNL1       -0.0035
      2 C         141.3208  142.8502  166.5568 C.ar    1  UNL1        0.0757
      3 N         140.5961  142.5692  165.2739 N.ar    1  UNL1       -0.3052
      4 C         139.7150  141.3749  165.4912 C.ar    1  UNL1        0.0638
      5 C         138.7718  140.6446  164.5818 C.ar    1  UNL1        0.0184
      6 C         138.0089  139.4572  165.0895 C.ar    1  UNL1        0.0129
      7 C         138.1891  139.0000  166.5067 C.ar    1  UNL1        0.0578
      8 CL        137.4261  137.8124  167.0144 Cl      1  UNL1       -0.0822
      9 C         139.1322  139.7302  167.4162 C.ar    1  UNL1        0.0126
     10 C         139.8951  140.9177  166.9085 C.ar    1  UNL1        0.0144
     11 C         140.7291  143.3462  163.9978 C.ar    1  UNL1        0.0642
     12 C         141.5808  142.8163  162.8823 C.ar    1  UNL1        0.0198
     13 C         141.7138  143.5932  161.6062 C.ar    1  UNL1        0.0311
     14 C         140.9952  144.9000  161.4453 C.ar    1  UNL1        0.1402
     15 F         141.1282  145.6770  160.1691 F       1  UNL1       -0.2042
     16 C         140.1436  145.4299  162.5607 C.ar    1  UNL1        0.0311
     17 C         140.0106  144.6529  163.8369 C.ar    1  UNL1        0.0198
     18 C         141.3633  141.7368  168.9865 C.3     1  UNL1        0.0239
     19 C         142.4471  139.4085  169.3803 C.3     1  UNL1        0.0003
     20 C         142.5642  140.9028  169.3222 C.3     1  UNL1        0.0044
     21 C         140.6384  142.4779  170.0705 C.3     1  UNL1        0.0044
     22 C         140.3779  143.9483  169.9288 C.3     1  UNL1        0.0003
@<TRIPOS>BOND
     1    19    20    1
     2    20    18    1
     3    18    21    1
     4    21    22    1
     5    18     1    1
     6     1     2   ar
     7     2     3   ar
     8     3    11    1
     9    11    12   ar
    10    12    13   ar
    11    13    14   ar
    12    14    15    1
    13    14    16   ar
    14    16    17   ar
    15     3     4   ar
    16     4     5   ar
    17     5     6   ar
    18     6     7   ar
    19     7     8    1
    20     7     9   ar
    21     9    10   ar
    22    10     1   ar
    23    17    11   ar
    24    10     4   ar
@<TRIPOS>MOLECULE
*****
 22 24 0 0 0
SMALL
GASTEIGER

@<TRIPOS>ATOM
      1 C         141.8770  141.3624  168.1342 C.ar    1  UNL1       -0.0035
      2 C         142.8943  141.8800  167.1609 C.ar    1  UNL1        0.0757
      3 N         142.4746  141.4584  165.7839 N.ar    1  UNL1       -0.3052
      4 C         141.1981  140.6803  165.9062 C.ar    1  UNL1        0.0638
      5 C         140.3243  140.0182  164.8825 C.ar    1  UNL1        0.0184
      6 C         139.0811  139.2967  165.3114 C.ar    1  UNL1        0.0129
      7 C         138.7117  139.2374  166.7640 C.ar    1  UNL1        0.0578
      8 CL        137.4685  138.5159  167.1928 Cl      1  UNL1       -0.0822
      9 C         139.5855  139.8995  167.7877 C.ar    1  UNL1        0.0126
     10 C         140.8287  140.6210  167.3588 C.ar    1  UNL1        0.0144
     11 C         143.2036  141.7617  164.5085 C.ar    1  UNL1        0.0642
     12 C         142.9583  143.0578  163.7944 C.ar    1  UNL1        0.0198
     13 C         143.6872  143.3611  162.5190 C.ar    1  UNL1        0.0311
     14 C         144.6615  142.3683  161.9577 C.ar    1  UNL1        0.1402
     15 F         145.3905  142.6715  160.6823 F       1  UNL1       -0.2042
     16 C         144.9068  141.0722  162.6718 C.ar    1  UNL1        0.0311
     17 C         144.1779  140.7689  163.9472 C.ar    1  UNL1        0.0198
     18 C         141.9034  141.5528  169.6219 C.3     1  UNL1        0.0239
     19 C         140.4029  143.6731  169.5651 C.3     1  UNL1        0.0003
     20 C         141.4844  142.8642  170.2177 C.3     1  UNL1        0.0044
     21 C         142.3487  140.4321  170.5137 C.3     1  UNL1        0.0044
     22 C         142.5229  139.0516  169.9534 C.3     1  UNL1        0.0003
@<TRIPOS>BOND
     1    19    20    1
     2    20    18    1
     3    18    21    1
     4    21    22    1
     5    18     1    1
     6     1     2   ar
     7     2     3   ar
     8     3    11    1
     9    11    12   ar
    10    12    13   ar
    11    13    14   ar
    12    14    15    1
    13    14    16   ar
    14    16    17   ar
    15     3     4   ar
    16     4     5   ar
    17     5     6   ar
    18     6     7   ar
    19     7     8    1
    20     7     9   ar
    21     9    10   ar
    22    10     1   ar
    23    17    11   ar
    24    10     4   ar
@<TRIPOS>MOLECULE
*****
 22 24 0 0 0
SMALL
GASTEIGER

@<TRIPOS>ATOM
      1 C         139.9720  143.8142  164.2416 C.ar    1  UNL1       -0.0035
      2 C         139.4783  143.4008  165.5963 C.ar    1  UNL1        0.0757
      3 N         140.6253  142.7813  166.3384 N.ar    1  UNL1       -0.3052
      4 C         141.8278  142.8119  165.4423 C.ar    1  UNL1        0.0638
      5 C         143.2383  142.3409  165.6390 C.ar    1  UNL1        0.0184
      6 C         144.2450  142.5082  164.5397 C.ar    1  UNL1        0.0129
      7 C         143.8413  143.1466  163.2438 C.ar    1  UNL1        0.0578
      8 CL        144.8481  143.3139  162.1445 Cl      1  UNL1       -0.0822
      9 C         142.4308  143.6175  163.0471 C.ar    1  UNL1        0.0126
     10 C         141.4241  143.4502  164.1464 C.ar    1  UNL1        0.0144
     11 C         140.5780  142.2284  167.7320 C.ar    1  UNL1        0.0642
     12 C         140.5527  143.1595  168.9079 C.ar    1  UNL1        0.0198
     13 C         140.5055  142.6066  170.3015 C.ar    1  UNL1        0.0311
     14 C         140.4835  141.1227  170.5192 C.ar    1  UNL1        0.1402
     15 F         140.4363  140.5697  171.9128 F       1  UNL1       -0.2042
     16 C         140.5089  140.1916  169.3434 C.ar    1  UNL1        0.0311
     17 C         140.5561  140.7446  167.9499 C.ar    1  UNL1        0.0198
     18 C         139.1568  144.4754  163.1700 C.3     1  UNL1        0.0239
     19 C         140.1095  145.7414  161.1109 C.3     1  UNL1        0.0003
     20 C         139.6408  145.7457  162.5358 C.3     1  UNL1        0.0044
     21 C         137.8576  143.8665  162.7327 C.3     1  UNL1        0.0044
     22 C         137.8107  142.4319  162.2970 C.3     1  UNL1        0.0003
@<TRIPOS>BOND
     1    19    20    1
     2    20    18    1
     3    18    21    1
     4    21    22    1
     5    18     1    1
     6     1     2   ar
     7     2     3   ar
     8     3    11    1
     9    11    12   ar
    10    12    13   ar
    11    13    14   ar
    12    14    15    1
    13    14    16   ar
    14    16    17   ar
    15     3     4   ar
    16     4     5   ar
    17     5     6   ar
    18     6     7   ar
    19     7     8    1
    20     7     9   ar
    21     9    10   ar
    22    10     1   ar
    23    17    11   ar
    24    10     4   ar
