@<TRIPOS>MOLECULE
*****
 37 39 0 0 0
SMALL
GASTEIGER

@<TRIPOS>ATOM
      1 C         141.4165  138.5648  163.6154 C.2     1  UNL1        0.2418
      2 O         140.7123  137.2836  163.2801 O.2     1  UNL1       -0.2738
      3 N         142.0328  139.3896  162.5247 N.am    1  UNL1       -0.2832
      4 H         142.4950  140.2305  162.7448 H       1  UNL1        0.1549
      5 C         141.7687  140.3902  169.3202 C.ar    1  UNL1        0.0625
      6 C         140.5180  140.5726  170.1279 C.ar    1  UNL1        0.0452
      7 C         139.1792  140.2985  169.5094 C.ar    1  UNL1        0.1415
      8 F         137.9284  140.4809  170.3171 F       1  UNL1       -0.2041
      9 C         139.0911  139.8422  168.0832 C.ar    1  UNL1        0.0337
     10 C         140.3418  139.6599  167.2756 C.ar    1  UNL1        0.0492
     11 C         140.2538  139.2035  165.8493 C.2     1  UNL1        0.1296
     12 O         138.9150  138.9294  165.2309 O.2     1  UNL1       -0.5088
     13 C         141.5046  139.0212  165.0417 C.3     1  UNL1        0.2107
     14 C         142.8434  139.2952  165.6601 C.2     1  UNL1        0.2613
     15 O         144.0941  139.1129  164.8524 O.2     1  UNL1       -0.2720
     16 N         142.9314  139.7515  167.0863 N.am    1  UNL1       -0.1771
     17 C         141.6807  139.9339  167.8940 C.ar    1  UNL1        0.0891
     18 H         138.1337  139.0433  165.7354 H       1  UNL1        0.2917
     19 C         143.6843  142.0482  169.8959 C.3     1  UNL1        0.1086
     20 N         143.1075  140.6643  169.9387 N.pl3   1  UNL1       -0.3302
     21 H         143.6076  139.9358  170.3727 H       1  UNL1        0.1469
     22 C         141.9447  138.9332  161.0985 C.ar    1  UNL1        0.0503
     23 C         140.7783  139.3448  160.2499 C.ar    1  UNL1        0.0148
     24 C         140.6902  138.8884  158.8238 C.ar    1  UNL1        0.0058
     25 C         141.7686  138.0205  158.2462 C.ar    1  UNL1        0.0550
     26 C         142.9350  137.6089  159.0947 C.ar    1  UNL1        0.0058
     27 C         143.0231  138.0653  160.5209 C.ar    1  UNL1        0.0148
     28 C         141.6806  137.5641  156.8200 C.2     1  UNL1        0.2651
     29 O         142.7637  137.9274  155.8481 O.2     1  UNL1       -0.2685
     30 N         140.5093  136.7443  156.3658 N.am    1  UNL1       -0.1714
     31 H         139.7984  136.5059  157.0037 H       1  UNL1        0.1779
     32 S         140.4213  136.2879  154.9397 S.O2    1  UNL1        0.1154
     33 O         141.1600  135.0320  155.2960 O.2     1  UNL1       -0.1378
     34 O         139.6826  137.5438  154.5834 O.2     1  UNL1       -0.1378
     35 N         140.3332  135.8315  153.5135 N.3     1  UNL1       -0.1398
     36 C         139.3132  136.4354  152.5943 C.3     1  UNL1        0.1163
     37 C         141.2652  134.7712  153.0065 C.3     1  UNL1        0.1163
@<TRIPOS>BOND
     1    19    20    1
     2    20     5    1
     3     5     6   ar
     4     6     7   ar
     5     7     8    1
     6     7     9   ar
     7     9    10   ar
     8    10    11    2
     9    11    12    1
    10    11    13    1
    11    13     1    1
    12     1     2    2
    13     1     3   am
    14     3    22    1
    15    22    23   ar
    16    23    24   ar
    17    24    25   ar
    18    25    28    1
    19    28    29    2
    20    28    30   am
    21    30    32    1
    22    32    33    2
    23    32    34    2
    24    32    35    1
    25    35    36    1
    26    35    37    1
    27    25    26   ar
    28    26    27   ar
    29    13    14    1
    30    14    15    2
    31    14    16    1
    32    16    17    2
    33    17     5   ar
    34    17    10   ar
    35    27    22   ar
    36    20    21    1
    37    12    18    1
    38     3     4    1
    39    30    31    1
@<TRIPOS>MOLECULE
*****
 37 39 0 0 0
SMALL
GASTEIGER

@<TRIPOS>ATOM
      1 C         141.8855  143.7408  160.1425 C.2     1  UNL1        0.2418
      2 O         141.5928  142.2875  160.3709 O.2     1  UNL1       -0.2738
      3 N         142.3090  144.6098  161.2894 N.am    1  UNL1       -0.2832
      4 H         142.5011  145.5637  161.1395 H       1  UNL1        0.1549
      5 C         141.3627  146.0777  154.6410 C.ar    1  UNL1        0.0625
      6 C         140.3199  147.1199  154.3649 C.ar    1  UNL1        0.0452
      7 C         139.4078  147.5780  155.4642 C.ar    1  UNL1        0.1415
      8 F         138.3651  148.6204  155.1880 F       1  UNL1       -0.2041
      9 C         139.5385  146.9938  156.8395 C.ar    1  UNL1        0.0337
     10 C         140.5813  145.9516  157.1156 C.ar    1  UNL1        0.0492
     11 C         140.7120  145.3673  158.4910 C.2     1  UNL1        0.1296
     12 O         139.8000  145.8254  159.5902 O.2     1  UNL1       -0.5088
     13 C         141.7548  144.3250  158.7671 C.3     1  UNL1        0.2107
     14 C         142.6668  143.8669  157.6679 C.2     1  UNL1        0.2613
     15 O         143.7096  142.8246  157.9440 O.2     1  UNL1       -0.2720
     16 N         142.5361  144.4511  156.2925 N.am    1  UNL1       -0.1771
     17 C         141.4933  145.4935  156.0164 C.ar    1  UNL1        0.0891
     18 H         139.1486  146.4765  159.4177 H       1  UNL1        0.2917
     19 C         142.4135  146.4380  152.2925 C.3     1  UNL1        0.1086
     20 N         142.2747  145.6196  153.5418 N.pl3   1  UNL1       -0.3302
     21 H         142.7822  144.7817  153.6403 H       1  UNL1        0.1469
     22 C         142.4397  144.0256  162.6647 C.ar    1  UNL1        0.0503
     23 C         143.7990  143.7567  163.2393 C.ar    1  UNL1        0.0148
     24 C         143.9297  143.1725  164.6146 C.ar    1  UNL1        0.0058
     25 C         142.7012  142.8570  165.4153 C.ar    1  UNL1        0.0550
     26 C         141.3419  143.1258  164.8408 C.ar    1  UNL1        0.0058
     27 C         141.2112  143.7101  163.4654 C.ar    1  UNL1        0.0148
     28 C         142.8319  142.2727  166.7906 C.2     1  UNL1        0.2651
     29 O         143.8418  142.8302  167.7495 O.2     1  UNL1       -0.2685
     30 N         141.9527  141.1310  167.2072 N.am    1  UNL1       -0.1714
     31 H         141.2898  140.7651  166.5779 H       1  UNL1        0.1779
     32 S         142.0834  140.5467  168.5825 S.O2    1  UNL1        0.1154
     33 O         143.0650  139.5394  168.0613 O.2     1  UNL1       -0.1378
     34 O         141.1018  141.5540  169.1037 O.2     1  UNL1       -0.1378
     35 N         142.2142  139.9624  169.9578 N.3     1  UNL1       -0.1398
     36 C         142.6897  138.5503  170.1307 C.3     1  UNL1        0.1163
     37 C         141.8694  140.7901  171.1603 C.3     1  UNL1        0.1163
@<TRIPOS>BOND
     1    19    20    1
     2    20     5    1
     3     5     6   ar
     4     6     7   ar
     5     7     8    1
     6     7     9   ar
     7     9    10   ar
     8    10    11    2
     9    11    12    1
    10    11    13    1
    11    13     1    1
    12     1     2    2
    13     1     3   am
    14     3    22    1
    15    22    23   ar
    16    23    24   ar
    17    24    25   ar
    18    25    28    1
    19    28    29    2
    20    28    30   am
    21    30    32    1
    22    32    33    2
    23    32    34    2
    24    32    35    1
    25    35    36    1
    26    35    37    1
    27    25    26   ar
    28    26    27   ar
    29    13    14    1
    30    14    15    2
    31    14    16    1
    32    16    17    2
    33    17     5   ar
    34    17    10   ar
    35    27    22   ar
    36    20    21    1
    37    12    18    1
    38     3     4    1
    39    30    31    1
@<TRIPOS>MOLECULE
*****
 37 39 0 0 0
SMALL
GASTEIGER

@<TRIPOS>ATOM
      1 C         141.4755  139.8383  164.1973 C.2     1  UNL1        0.2418
      2 O         141.4682  141.1076  163.3979 O.2     1  UNL1       -0.2738
      3 N         141.2723  138.5194  163.5124 N.am    1  UNL1       -0.2832
      4 H         141.2772  137.6864  164.0371 H       1  UNL1        0.1549
      5 C         142.3177  140.0371  170.1346 C.ar    1  UNL1        0.0625
      6 C         141.5120  140.9828  170.9752 C.ar    1  UNL1        0.0452
      7 C         140.4957  141.8787  170.3314 C.ar    1  UNL1        0.1415
      8 F         139.6899  142.8243  171.1720 F       1  UNL1       -0.2041
      9 C         140.2851  141.8290  168.8471 C.ar    1  UNL1        0.0337
     10 C         141.0909  140.8834  168.0066 C.ar    1  UNL1        0.0492
     11 C         140.8803  140.8337  166.5222 C.2     1  UNL1        0.1296
     12 O         139.8640  141.7296  165.8785 O.2     1  UNL1       -0.5088
     13 C         141.6861  139.8880  165.6817 C.3     1  UNL1        0.2107
     14 C         142.7024  138.9921  166.3254 C.2     1  UNL1        0.2613
     15 O         143.5082  138.0465  165.4848 O.2     1  UNL1       -0.2720
     16 N         142.9129  139.0418  167.8097 N.am    1  UNL1       -0.1771
     17 C         142.1072  139.9875  168.6503 C.ar    1  UNL1        0.0891
     18 H         139.3607  142.3203  166.4035 H       1  UNL1        0.2917
     19 C         143.2433  137.6546  170.6002 C.3     1  UNL1        0.1086
     20 N         143.3341  139.1412  170.7784 N.pl3   1  UNL1       -0.3302
     21 H         144.0606  139.5289  171.3178 H       1  UNL1        0.1469
     22 C         141.0618  138.4698  162.0281 C.ar    1  UNL1        0.0503
     23 C         142.2428  138.4345  161.1038 C.ar    1  UNL1        0.0148
     24 C         142.0322  138.3849  159.6195 C.ar    1  UNL1        0.0058
     25 C         140.6408  138.3704  159.0594 C.ar    1  UNL1        0.0550
     26 C         139.4599  138.4057  159.9836 C.ar    1  UNL1        0.0058
     27 C         139.6704  138.4553  161.4680 C.ar    1  UNL1        0.0148
     28 C         140.4303  138.3207  157.5751 C.2     1  UNL1        0.2651
     29 O         141.2038  139.2398  156.6768 O.2     1  UNL1       -0.2685
     30 N         139.4462  137.3520  156.9892 N.am    1  UNL1       -0.1714
     31 H         138.9385  136.7488  157.5788 H       1  UNL1        0.1779
     32 S         139.2357  137.3024  155.5049 S.O2    1  UNL1        0.1154
     33 O         138.1861  138.3679  155.6181 O.2     1  UNL1       -0.1378
     34 O         140.2853  136.2368  155.3917 O.2     1  UNL1       -0.1378
     35 N         139.0251  137.2527  154.0205 N.3     1  UNL1       -0.1398
     36 C         137.6396  137.3586  153.4556 C.3     1  UNL1        0.1163
     37 C         140.2000  137.0972  153.1011 C.3     1  UNL1        0.1163
@<TRIPOS>BOND
     1    19    20    1
     2    20     5    1
     3     5     6   ar
     4     6     7   ar
     5     7     8    1
     6     7     9   ar
     7     9    10   ar
     8    10    11    2
     9    11    12    1
    10    11    13    1
    11    13     1    1
    12     1     2    2
    13     1     3   am
    14     3    22    1
    15    22    23   ar
    16    23    24   ar
    17    24    25   ar
    18    25    28    1
    19    28    29    2
    20    28    30   am
    21    30    32    1
    22    32    33    2
    23    32    34    2
    24    32    35    1
    25    35    36    1
    26    35    37    1
    27    25    26   ar
    28    26    27   ar
    29    13    14    1
    30    14    15    2
    31    14    16    1
    32    16    17    2
    33    17     5   ar
    34    17    10   ar
    35    27    22   ar
    36    20    21    1
    37    12    18    1
    38     3     4    1
    39    30    31    1
@<TRIPOS>MOLECULE
*****
 37 39 0 0 0
SMALL
GASTEIGER

@<TRIPOS>ATOM
      1 C         141.8760  144.1768  159.5965 C.2     1  UNL1        0.2418
      2 O         142.1515  142.7097  159.7442 O.2     1  UNL1       -0.2738
      3 N         141.8329  145.0577  160.8098 N.am    1  UNL1       -0.2832
      4 H         141.6521  146.0206  160.7129 H       1  UNL1        0.1549
      5 C         140.9460  146.5214  154.1524 C.ar    1  UNL1        0.0625
      6 C         141.8467  146.1499  153.0120 C.ar    1  UNL1        0.0452
      7 C         142.9799  145.1922  153.2325 C.ar    1  UNL1        0.1415
      8 F         143.8806  144.8206  152.0920 F       1  UNL1       -0.2041
      9 C         143.2124  144.6060  154.5935 C.ar    1  UNL1        0.0337
     10 C         142.3117  144.9776  155.7339 C.ar    1  UNL1        0.0492
     11 C         142.5442  144.3914  157.0950 C.2     1  UNL1        0.1296
     12 O         143.6774  143.4337  157.3156 O.2     1  UNL1       -0.5088
     13 C         141.6435  144.7630  158.2355 C.3     1  UNL1        0.2107
     14 C         140.5103  145.7207  158.0149 C.2     1  UNL1        0.2613
     15 O         139.6095  146.0922  159.1554 O.2     1  UNL1       -0.2720
     16 N         140.2778  146.3068  156.6539 N.am    1  UNL1       -0.1771
     17 C         141.1785  145.9353  155.5134 C.ar    1  UNL1        0.0891
     18 H         144.2400  143.2016  156.6032 H       1  UNL1        0.2917
     19 C         140.0890  148.9455  153.7791 C.3     1  UNL1        0.1086
     20 N         139.8128  147.4791  153.9319 N.pl3   1  UNL1       -0.3302
     21 H         138.8877  147.1452  153.8874 H       1  UNL1        0.1469
     22 C         142.0654  144.4715  162.1708 C.ar    1  UNL1        0.0503
     23 C         143.4558  144.4002  162.7292 C.ar    1  UNL1        0.0148
     24 C         143.6883  143.8140  164.0902 C.ar    1  UNL1        0.0058
     25 C         142.5304  143.2992  164.8928 C.ar    1  UNL1        0.0550
     26 C         141.1401  143.3705  164.3345 C.ar    1  UNL1        0.0058
     27 C         140.9075  143.9567  162.9735 C.ar    1  UNL1        0.0148
     28 C         142.7629  142.7130  166.2538 C.2     1  UNL1        0.2651
     29 O         144.0341  143.0116  166.9919 O.2     1  UNL1       -0.2685
     30 N         141.7241  141.8281  166.8768 N.am    1  UNL1       -0.1714
     31 H         140.8897  141.6321  166.3924 H       1  UNL1        0.1779
     32 S         141.9566  141.2420  168.2378 S.O2    1  UNL1        0.1154
     33 O         142.5141  140.0002  167.6077 O.2     1  UNL1       -0.1378
     34 O         141.3990  142.4838  168.8678 O.2     1  UNL1       -0.1378
     35 N         142.1891  140.6557  169.5988 N.3     1  UNL1       -0.1398
     36 C         142.1239  141.5324  170.8141 C.3     1  UNL1        0.1163
     37 C         142.4868  139.1928  169.7444 C.3     1  UNL1        0.1163
@<TRIPOS>BOND
     1    19    20    1
     2    20     5    1
     3     5     6   ar
     4     6     7   ar
     5     7     8    1
     6     7     9   ar
     7     9    10   ar
     8    10    11    2
     9    11    12    1
    10    11    13    1
    11    13     1    1
    12     1     2    2
    13     1     3   am
    14     3    22    1
    15    22    23   ar
    16    23    24   ar
    17    24    25   ar
    18    25    28    1
    19    28    29    2
    20    28    30   am
    21    30    32    1
    22    32    33    2
    23    32    34    2
    24    32    35    1
    25    35    36    1
    26    35    37    1
    27    25    26   ar
    28    26    27   ar
    29    13    14    1
    30    14    15    2
    31    14    16    1
    32    16    17    2
    33    17     5   ar
    34    17    10   ar
    35    27    22   ar
    36    20    21    1
    37    12    18    1
    38     3     4    1
    39    30    31    1
@<TRIPOS>MOLECULE
*****
 37 39 0 0 0
SMALL
GASTEIGER

@<TRIPOS>ATOM
      1 C         143.6038  141.3033  163.3306 C.2     1  UNL1        0.2418
      2 O         145.0789  141.0620  163.2039 O.2     1  UNL1       -0.2738
      3 N         142.7722  141.5265  162.1024 N.am    1  UNL1       -0.2832
      4 H         141.8041  141.6849  162.1855 H       1  UNL1        0.1549
      5 C         141.0303  141.3757  168.7502 C.ar    1  UNL1        0.0625
      6 C         141.3102  140.2733  169.7281 C.ar    1  UNL1        0.0452
      7 C         142.2335  139.1528  169.3512 C.ar    1  UNL1        0.1415
      8 F         142.5133  138.0504  170.3292 F       1  UNL1       -0.2041
      9 C         142.8768  139.1347  167.9963 C.ar    1  UNL1        0.0337
     10 C         142.5969  140.2371  167.0184 C.ar    1  UNL1        0.0492
     11 C         143.2403  140.2190  165.6634 C.2     1  UNL1        0.1296
     12 O         144.1636  139.0985  165.2865 O.2     1  UNL1       -0.5088
     13 C         142.9604  141.3214  164.6855 C.3     1  UNL1        0.2107
     14 C         142.0371  142.4418  165.0624 C.2     1  UNL1        0.2613
     15 O         141.7572  143.5442  164.0844 O.2     1  UNL1       -0.2720
     16 N         141.3938  142.4599  166.4173 N.am    1  UNL1       -0.1771
     17 C         141.6736  141.3575  167.3953 C.ar    1  UNL1        0.0891
     18 H         144.3385  138.4099  165.8974 H       1  UNL1        0.2917
     19 C         140.6481  143.7152  169.8133 C.3     1  UNL1        0.1086
     20 N         140.1070  142.4961  169.1271 N.pl3   1  UNL1       -0.3302
     21 H         139.1458  142.4314  168.9241 H       1  UNL1        0.1469
     22 C         143.4156  141.5084  160.7475 C.ar    1  UNL1        0.0503
     23 C         143.2768  140.3017  159.8673 C.ar    1  UNL1        0.0148
     24 C         143.9202  140.2836  158.5125 C.ar    1  UNL1        0.0058
     25 C         144.7024  141.4722  158.0378 C.ar    1  UNL1        0.0550
     26 C         144.8413  142.6789  158.9179 C.ar    1  UNL1        0.0058
     27 C         144.1979  142.6970  160.2728 C.ar    1  UNL1        0.0148
     28 C         145.3459  141.4541  156.6829 C.2     1  UNL1        0.2651
     29 O         145.2710  140.2201  155.8335 O.2     1  UNL1       -0.2685
     30 N         146.0642  142.6701  156.1775 N.am    1  UNL1       -0.1714
     31 H         146.1134  143.4801  156.7350 H       1  UNL1        0.1779
     32 S         146.7076  142.6520  154.8226 S.O2    1  UNL1        0.1154
     33 O         145.4296  143.1421  154.2091 O.2     1  UNL1       -0.1378
     34 O         147.9857  142.1620  155.4361 O.2     1  UNL1       -0.1378
     35 N         147.3510  142.6340  153.4677 N.3     1  UNL1       -0.1398
     36 C         148.3522  143.6882  153.0987 C.3     1  UNL1        0.1163
     37 C         146.9932  141.5617  152.4817 C.3     1  UNL1        0.1163
@<TRIPOS>BOND
     1    19    20    1
     2    20     5    1
     3     5     6   ar
     4     6     7   ar
     5     7     8    1
     6     7     9   ar
     7     9    10   ar
     8    10    11    2
     9    11    12    1
    10    11    13    1
    11    13     1    1
    12     1     2    2
    13     1     3   am
    14     3    22    1
    15    22    23   ar
    16    23    24   ar
    17    24    25   ar
    18    25    28    1
    19    28    29    2
    20    28    30   am
    21    30    32    1
    22    32    33    2
    23    32    34    2
    24    32    35    1
    25    35    36    1
    26    35    37    1
    27    25    26   ar
    28    26    27   ar
    29    13    14    1
    30    14    15    2
    31    14    16    1
    32    16    17    2
    33    17     5   ar
    34    17    10   ar
    35    27    22   ar
    36    20    21    1
    37    12    18    1
    38     3     4    1
    39    30    31    1
@<TRIPOS>MOLECULE
*****
 37 39 0 0 0
SMALL
GASTEIGER

@<TRIPOS>ATOM
      1 C         142.1067  140.4315  164.2624 C.2     1  UNL1        0.2418
      2 O         140.7676  140.4417  163.5867 O.2     1  UNL1       -0.2738
      3 N         143.3254  139.9934  163.5055 N.am    1  UNL1       -0.2832
      4 H         144.2043  139.9868  163.9490 H       1  UNL1        0.1549
      5 C         142.5888  142.1438  169.9927 C.ar    1  UNL1        0.0625
      6 C         141.7408  141.4916  171.0442 C.ar    1  UNL1        0.0452
      7 C         140.7724  140.4114  170.6631 C.ar    1  UNL1        0.1415
      8 F         139.9244  139.7593  171.7147 F       1  UNL1       -0.2041
      9 C         140.6518  139.9834  169.2306 C.ar    1  UNL1        0.0337
     10 C         141.4998  140.6355  168.1791 C.ar    1  UNL1        0.0492
     11 C         141.3793  140.2075  166.7465 C.2     1  UNL1        0.1296
     12 O         140.4108  139.1272  166.3654 O.2     1  UNL1       -0.5088
     13 C         142.2272  140.8596  165.6950 C.3     1  UNL1        0.2107
     14 C         143.1957  141.9398  166.0761 C.2     1  UNL1        0.2613
     15 O         144.0437  142.5919  165.0245 O.2     1  UNL1       -0.2720
     16 N         143.3163  142.3679  167.5086 N.am    1  UNL1       -0.1771
     17 C         142.4683  141.7157  168.5602 C.ar    1  UNL1        0.0891
     18 H         139.8811  138.7199  167.0223 H       1  UNL1        0.2917
     19 C         145.0330  142.9602  170.3231 C.3     1  UNL1        0.1086
     20 N         143.5573  143.2240  170.3738 N.pl3   1  UNL1       -0.3302
     21 H         143.2243  144.1061  170.6571 H       1  UNL1        0.1469
     22 C         143.2048  139.5654  162.0730 C.ar    1  UNL1        0.0503
     23 C         143.0922  138.1089  161.7323 C.ar    1  UNL1        0.0148
     24 C         142.9716  137.6809  160.2997 C.ar    1  UNL1        0.0058
     25 C         142.9637  138.7093  159.2078 C.ar    1  UNL1        0.0550
     26 C         143.0764  140.1657  159.5484 C.ar    1  UNL1        0.0058
     27 C         143.1969  140.5938  160.9810 C.ar    1  UNL1        0.0148
     28 C         142.8432  138.2813  157.7753 C.2     1  UNL1        0.2651
     29 O         142.7675  139.3122  156.6883 O.2     1  UNL1       -0.2685
     30 N         142.7983  136.8223  157.4296 N.am    1  UNL1       -0.1714
     31 H         142.8480  136.1456  158.1430 H       1  UNL1        0.1779
     32 S         142.6778  136.3942  155.9971 S.O2    1  UNL1        0.1154
     33 O         144.1716  136.4183  155.8642 O.2     1  UNL1       -0.1378
     34 O         141.1839  136.3702  156.1300 O.2     1  UNL1       -0.1378
     35 N         142.5573  135.9662  154.5645 N.3     1  UNL1       -0.1398
     36 C         142.7320  134.5228  154.1958 C.3     1  UNL1        0.1163
     37 C         142.2620  136.9816  153.5006 C.3     1  UNL1        0.1163
@<TRIPOS>BOND
     1    19    20    1
     2    20     5    1
     3     5     6   ar
     4     6     7   ar
     5     7     8    1
     6     7     9   ar
     7     9    10   ar
     8    10    11    2
     9    11    12    1
    10    11    13    1
    11    13     1    1
    12     1     2    2
    13     1     3   am
    14     3    22    1
    15    22    23   ar
    16    23    24   ar
    17    24    25   ar
    18    25    28    1
    19    28    29    2
    20    28    30   am
    21    30    32    1
    22    32    33    2
    23    32    34    2
    24    32    35    1
    25    35    36    1
    26    35    37    1
    27    25    26   ar
    28    26    27   ar
    29    13    14    1
    30    14    15    2
    31    14    16    1
    32    16    17    2
    33    17     5   ar
    34    17    10   ar
    35    27    22   ar
    36    20    21    1
    37    12    18    1
    38     3     4    1
    39    30    31    1
@<TRIPOS>MOLECULE
*****
 37 39 0 0 0
SMALL
GASTEIGER

@<TRIPOS>ATOM
      1 C         143.3987  140.8531  163.2497 C.2     1  UNL1        0.2418
      2 O         144.8297  140.4238  163.1159 O.2     1  UNL1       -0.2738
      3 N         142.6399  141.3204  162.0431 N.am    1  UNL1       -0.2832
      4 H         141.7007  141.6022  162.1310 H       1  UNL1        0.1549
      5 C         140.7099  140.7010  168.6113 C.ar    1  UNL1        0.0625
      6 C         141.2272  141.5505  169.7341 C.ar    1  UNL1        0.0452
      7 C         142.4167  142.4380  169.5166 C.ar    1  UNL1        0.1415
      8 F         142.9340  143.2875  170.6395 F       1  UNL1       -0.2041
      9 C         143.0889  142.4761  168.1762 C.ar    1  UNL1        0.0337
     10 C         142.5716  141.6266  167.0534 C.ar    1  UNL1        0.0492
     11 C         143.2438  141.6646  165.7130 C.2     1  UNL1        0.1296
     12 O         144.4333  142.5521  165.4954 O.2     1  UNL1       -0.5088
     13 C         142.7265  140.8151  164.5902 C.3     1  UNL1        0.2107
     14 C         141.5370  139.9276  164.8077 C.2     1  UNL1        0.2613
     15 O         141.0197  139.0781  163.6848 O.2     1  UNL1       -0.2720
     16 N         140.8648  139.8895  166.1481 N.am    1  UNL1       -0.1771
     17 C         141.3821  140.7391  167.2710 C.ar    1  UNL1        0.0891
     18 H         144.7565  143.0828  166.1968 H       1  UNL1        0.2917
     19 C         138.5287  140.1391  169.9062 C.3     1  UNL1        0.1086
     20 N         139.5203  139.8135  168.8289 N.pl3   1  UNL1       -0.3302
     21 H         139.3905  139.0172  168.2646 H       1  UNL1        0.1469
     22 C         143.3122  141.3584  160.7028 C.ar    1  UNL1        0.0503
     23 C         143.1868  140.1924  159.7675 C.ar    1  UNL1        0.0148
     24 C         143.8590  140.2304  158.4271 C.ar    1  UNL1        0.0058
     25 C         144.6566  141.4344  158.0220 C.ar    1  UNL1        0.0550
     26 C         144.7820  142.6004  158.9572 C.ar    1  UNL1        0.0058
     27 C         144.1098  142.5625  160.2976 C.ar    1  UNL1        0.0148
     28 C         145.3289  141.4724  156.6816 C.2     1  UNL1        0.2651
     29 O         145.1453  140.3376  155.7180 O.2     1  UNL1       -0.2685
     30 N         146.1847  142.6453  156.3047 N.am    1  UNL1       -0.1714
     31 H         146.3052  143.3901  156.9371 H       1  UNL1        0.1779
     32 S         146.8569  142.6833  154.9644 S.O2    1  UNL1        0.1154
     33 O         148.0567  141.9966  155.5466 O.2     1  UNL1       -0.1378
     34 O         145.6572  143.3700  154.3821 O.2     1  UNL1       -0.1378
     35 N         147.5292  142.7213  153.6239 N.3     1  UNL1       -0.1398
     36 C         148.2422  143.9632  153.1774 C.3     1  UNL1        0.1163
     37 C         147.4886  141.5174  152.7301 C.3     1  UNL1        0.1163
@<TRIPOS>BOND
     1    19    20    1
     2    20     5    1
     3     5     6   ar
     4     6     7   ar
     5     7     8    1
     6     7     9   ar
     7     9    10   ar
     8    10    11    2
     9    11    12    1
    10    11    13    1
    11    13     1    1
    12     1     2    2
    13     1     3   am
    14     3    22    1
    15    22    23   ar
    16    23    24   ar
    17    24    25   ar
    18    25    28    1
    19    28    29    2
    20    28    30   am
    21    30    32    1
    22    32    33    2
    23    32    34    2
    24    32    35    1
    25    35    36    1
    26    35    37    1
    27    25    26   ar
    28    26    27   ar
    29    13    14    1
    30    14    15    2
    31    14    16    1
    32    16    17    2
    33    17     5   ar
    34    17    10   ar
    35    27    22   ar
    36    20    21    1
    37    12    18    1
    38     3     4    1
    39    30    31    1
@<TRIPOS>MOLECULE
*****
 37 39 0 0 0
SMALL
GASTEIGER

@<TRIPOS>ATOM
      1 C         140.5359  139.4265  164.1748 C.2     1  UNL1        0.2418
      2 O         140.4323  137.9470  163.9506 O.2     1  UNL1       -0.2738
      3 N         140.5528  140.3632  163.0034 N.am    1  UNL1       -0.2832
      4 H         140.6208  141.3343  163.1506 H       1  UNL1        0.1549
      5 C         140.8831  141.5976  169.7575 C.ar    1  UNL1        0.0625
      6 C         141.8762  141.0247  170.7246 C.ar    1  UNL1        0.0452
      7 C         142.7826  139.9089  170.2961 C.ar    1  UNL1        0.1415
      8 F         143.7758  139.3360  171.2633 F       1  UNL1       -0.2041
      9 C         142.6958  139.3661  168.9005 C.ar    1  UNL1        0.0337
     10 C         141.7027  139.9391  167.9334 C.ar    1  UNL1        0.0492
     11 C         141.6159  139.3963  166.5376 C.2     1  UNL1        0.1296
     12 O         142.5223  138.2806  166.1091 O.2     1  UNL1       -0.5088
     13 C         140.6227  139.9693  165.5705 C.3     1  UNL1        0.2107
     14 C         139.7164  141.0850  165.9990 C.2     1  UNL1        0.2613
     15 O         138.7232  141.6579  165.0318 O.2     1  UNL1       -0.2720
     16 N         139.8031  141.6278  167.3947 N.am    1  UNL1       -0.1771
     17 C         140.7963  141.0548  168.3619 C.ar    1  UNL1        0.0891
     18 H         143.1427  137.9227  166.7133 H       1  UNL1        0.2917
     19 C         140.3934  144.1394  169.9798 C.3     1  UNL1        0.1086
     20 N         139.9767  142.7133  170.1860 N.pl3   1  UNL1       -0.3302
     21 H         139.1082  142.5096  170.6026 H       1  UNL1        0.1469
     22 C         140.4660  139.8204  161.6078 C.ar    1  UNL1        0.0503
     23 C         139.1508  139.8128  160.8864 C.ar    1  UNL1        0.0148
     24 C         139.0640  139.2700  159.4908 C.ar    1  UNL1        0.0058
     25 C         140.2924  138.7348  158.8165 C.ar    1  UNL1        0.0550
     26 C         141.6075  138.7424  159.5378 C.ar    1  UNL1        0.0058
     27 C         141.6943  139.2852  160.9335 C.ar    1  UNL1        0.0148
     28 C         140.2056  138.1920  157.4209 C.2     1  UNL1        0.2651
     29 O         141.2239  137.2031  156.9361 O.2     1  UNL1       -0.2685
     30 N         139.1004  138.6382  156.5100 N.am    1  UNL1       -0.1714
     31 H         138.4320  139.2872  156.8281 H       1  UNL1        0.1779
     32 S         139.0136  138.0954  155.1144 S.O2    1  UNL1        0.1154
     33 O         139.8421  139.2425  154.6167 O.2     1  UNL1       -0.1378
     34 O         138.1852  136.9482  155.6120 O.2     1  UNL1       -0.1378
     35 N         138.9268  137.5526  153.7186 N.3     1  UNL1       -0.1398
     36 C         140.1803  137.2494  152.9526 C.3     1  UNL1        0.1163
     37 C         137.5866  137.3130  153.0891 C.3     1  UNL1        0.1163
@<TRIPOS>BOND
     1    19    20    1
     2    20     5    1
     3     5     6   ar
     4     6     7   ar
     5     7     8    1
     6     7     9   ar
     7     9    10   ar
     8    10    11    2
     9    11    12    1
    10    11    13    1
    11    13     1    1
    12     1     2    2
    13     1     3   am
    14     3    22    1
    15    22    23   ar
    16    23    24   ar
    17    24    25   ar
    18    25    28    1
    19    28    29    2
    20    28    30   am
    21    30    32    1
    22    32    33    2
    23    32    34    2
    24    32    35    1
    25    35    36    1
    26    35    37    1
    27    25    26   ar
    28    26    27   ar
    29    13    14    1
    30    14    15    2
    31    14    16    1
    32    16    17    2
    33    17     5   ar
    34    17    10   ar
    35    27    22   ar
    36    20    21    1
    37    12    18    1
    38     3     4    1
    39    30    31    1
@<TRIPOS>MOLECULE
*****
 37 39 0 0 0
SMALL
GASTEIGER

@<TRIPOS>ATOM
      1 C         140.5760  140.7265  163.8117 C.2     1  UNL1        0.2418
      2 O         141.7016  140.7540  162.8207 O.2     1  UNL1       -0.2738
      3 N         139.1551  140.7846  163.3347 N.am    1  UNL1       -0.2832
      4 H         138.4163  140.7666  163.9851 H       1  UNL1        0.1549
      5 C         141.7572  140.3844  169.6844 C.ar    1  UNL1        0.0625
      6 C         142.8368  141.2364  170.2831 C.ar    1  UNL1        0.0452
      7 C         143.6211  142.1739  169.4137 C.ar    1  UNL1        0.1415
      8 F         144.7007  143.0259  170.0126 F       1  UNL1       -0.2041
      9 C         143.3258  142.2595  167.9456 C.ar    1  UNL1        0.0337
     10 C         142.2462  141.4075  167.3469 C.ar    1  UNL1        0.0492
     11 C         141.9509  141.4930  165.8787 C.2     1  UNL1        0.1296
     12 O         142.7352  142.4305  165.0093 O.2     1  UNL1       -0.5088
     13 C         140.8713  140.6410  165.2799 C.3     1  UNL1        0.2107
     14 C         140.0870  139.7035  166.1493 C.2     1  UNL1        0.2613
     15 O         139.0073  138.8515  165.5505 O.2     1  UNL1       -0.2720
     16 N         140.3822  139.6179  167.6175 N.am    1  UNL1       -0.1771
     17 C         141.4619  140.4699  168.2163 C.ar    1  UNL1        0.0891
     18 H         143.4096  142.9628  165.3833 H       1  UNL1        0.2917
     19 C         139.5659  139.7879  170.9463 C.3     1  UNL1        0.1086
     20 N         140.9728  139.4469  170.5538 N.pl3   1  UNL1       -0.3302
     21 H         141.3815  138.6076  170.8668 H       1  UNL1        0.1469
     22 C         138.8599  140.8701  161.8665 C.ar    1  UNL1        0.0503
     23 C         138.7238  142.2098  161.2056 C.ar    1  UNL1        0.0148
     24 C         138.4286  142.2954  159.7375 C.ar    1  UNL1        0.0058
     25 C         138.2693  141.0412  158.9302 C.ar    1  UNL1        0.0550
     26 C         138.4053  139.7015  159.5910 C.ar    1  UNL1        0.0058
     27 C         138.7006  139.6160  161.0592 C.ar    1  UNL1        0.0148
     28 C         137.9741  141.1267  157.4620 C.2     1  UNL1        0.2651
     29 O         139.0223  141.6296  156.5142 O.2     1  UNL1       -0.2685
     30 N         136.6305  140.7093  156.9416 N.am    1  UNL1       -0.1714
     31 H         135.9426  140.3792  157.5637 H       1  UNL1        0.1779
     32 S         136.3353  140.7948  155.4735 S.O2    1  UNL1        0.1154
     33 O         136.8128  139.3841  155.2953 O.2     1  UNL1       -0.1378
     34 O         135.8578  142.2055  155.6517 O.2     1  UNL1       -0.1378
     35 N         136.0400  140.8803  154.0053 N.3     1  UNL1       -0.1398
     36 C         137.1301  140.6314  153.0053 C.3     1  UNL1        0.1163
     37 C         134.6548  141.2146  153.5370 C.3     1  UNL1        0.1163
@<TRIPOS>BOND
     1    19    20    1
     2    20     5    1
     3     5     6   ar
     4     6     7   ar
     5     7     8    1
     6     7     9   ar
     7     9    10   ar
     8    10    11    2
     9    11    12    1
    10    11    13    1
    11    13     1    1
    12     1     2    2
    13     1     3   am
    14     3    22    1
    15    22    23   ar
    16    23    24   ar
    17    24    25   ar
    18    25    28    1
    19    28    29    2
    20    28    30   am
    21    30    32    1
    22    32    33    2
    23    32    34    2
    24    32    35    1
    25    35    36    1
    26    35    37    1
    27    25    26   ar
    28    26    27   ar
    29    13    14    1
    30    14    15    2
    31    14    16    1
    32    16    17    2
    33    17     5   ar
    34    17    10   ar
    35    27    22   ar
    36    20    21    1
    37    12    18    1
    38     3     4    1
    39    30    31    1
