@<TRIPOS>MOLECULE
*****
 32 35 0 0 0
SMALL
GASTEIGER

@<TRIPOS>ATOM
      1 O         141.6748  137.7479  161.8551 O.3     1  UNL1       -0.3470
      2 C         140.3247  137.8624  162.4987 C.3     1  UNL1        0.1467
      3 C         137.8009  140.7086  158.2124 C.3     1  UNL1        0.0896
      4 N         138.3199  140.1092  159.4857 N.3     1  UNL1       -0.2715
      5 C         137.8127  140.6026  160.8083 C.3     1  UNL1        0.0725
      6 C         138.3317  140.0031  162.0816 C.3     1  UNL1        0.0238
      7 C         139.3580  138.9103  162.0323 C.3     1  UNL1        0.0489
      8 C         139.8652  138.4169  160.7098 C.3     1  UNL1        0.0238
      9 C         139.3462  139.0163  159.4365 C.3     1  UNL1        0.0725
     10 C         139.1865  139.0398  163.5169 C.ar    1  UNL1       -0.0202
     11 C         139.2840  140.3873  164.1684 C.ar    1  UNL1       -0.0019
     12 C         139.1125  140.5169  165.6529 C.ar    1  UNL1        0.0293
     13 C         138.8434  139.2988  166.4859 C.ar    1  UNL1        0.1401
     14 F         138.6719  139.4283  167.9705 F       1  UNL1       -0.2042
     15 C         138.7458  137.9512  165.8344 C.ar    1  UNL1        0.0293
     16 C         138.9174  137.8217  164.3499 C.ar    1  UNL1       -0.0019
     17 C         142.9111  138.0604  162.6450 C.3     1  UNL1        0.1875
     18 C         142.8563  139.0648  163.7577 C.ar    1  UNL1        0.0901
     19 C         142.8053  138.6023  165.1837 C.ar    1  UNL1        0.0212
     20 C         142.7505  139.6068  166.2964 C.ar    1  UNL1        0.0754
     21 C         142.7466  141.0736  165.9831 C.ar    1  UNL1        0.0382
     22 C         142.7976  141.5362  164.5570 C.ar    1  UNL1        0.1318
     23 N         142.8524  140.5317  163.4443 N.ar    1  UNL1       -0.2325
     24 N         142.7938  143.0030  164.2438 N.pl3   1  UNL1       -0.2851
     25 C         141.5821  143.8410  163.9610 C.3     1  UNL1        0.1187
     26 C         142.0403  145.2454  163.7007 C.2     1  UNL1       -0.0076
     27 C         143.5350  145.2754  163.8226 C.2     1  UNL1       -0.0076
     28 C         144.0007  143.8895  164.1583 C.3     1  UNL1        0.1187
     29 C         142.6995  139.1443  167.7225 C.3     1  UNL1        0.4187
     30 F         142.6485  138.6820  169.1485 F       1  UNL1       -0.1659
     31 F         141.7077  140.2248  168.0373 F       1  UNL1       -0.1659
     32 F         143.6913  138.0640  167.4076 F       1  UNL1       -0.1659
@<TRIPOS>BOND
     1     3     4    1
     2     4     5    1
     3     5     6    1
     4     6     7    1
     5     7     2    1
     6     2     1    1
     7     1    17    1
     8    17    18    1
     9    18    19   ar
    10    19    20   ar
    11    20    29    1
    12    29    30    1
    13    29    31    1
    14    29    32    1
    15    20    21   ar
    16    21    22   ar
    17    22    24    1
    18    24    25    1
    19    25    26    1
    20    26    27    2
    21    27    28    1
    22    22    23   ar
    23     7    10    1
    24    10    11   ar
    25    11    12   ar
    26    12    13   ar
    27    13    14    1
    28    13    15   ar
    29    15    16   ar
    30     7     8    1
    31     8     9    1
    32     9     4    1
    33    23    18   ar
    34    16    10   ar
    35    28    24    1
@<TRIPOS>MOLECULE
*****
 32 35 0 0 0
SMALL
GASTEIGER

@<TRIPOS>ATOM
      1 O         143.1719  138.4392  164.3207 O.3     1  UNL1       -0.3470
      2 C         143.3010  139.2942  165.5464 C.3     1  UNL1        0.1467
      3 C         144.3096  144.2008  162.7625 C.3     1  UNL1        0.0896
      4 N         143.9191  143.0611  163.6562 N.3     1  UNL1       -0.2715
      5 C         143.1016  143.3193  164.8870 C.3     1  UNL1        0.0725
      6 C         142.7111  142.1796  165.7807 C.3     1  UNL1        0.0238
      7 C         143.1382  140.7818  165.4437 C.3     1  UNL1        0.0489
      8 C         143.9557  140.5237  164.2129 C.3     1  UNL1        0.0238
      9 C         144.3462  141.6633  163.3191 C.3     1  UNL1        0.0725
     10 C         142.3771  140.5234  166.7102 C.ar    1  UNL1       -0.0202
     11 C         141.0850  141.2401  166.9683 C.ar    1  UNL1       -0.0019
     12 C         140.3240  140.9817  168.2348 C.ar    1  UNL1        0.0293
     13 C         140.8551  140.0065  169.2431 C.ar    1  UNL1        0.1401
     14 F         140.0940  139.7480  170.5097 F       1  UNL1       -0.2042
     15 C         142.1472  139.2896  168.9851 C.ar    1  UNL1        0.0293
     16 C         142.9082  139.5481  167.7185 C.ar    1  UNL1       -0.0019
     17 C         141.8440  137.8429  163.9586 C.3     1  UNL1        0.1875
     18 C         140.5761  138.5130  164.3983 C.ar    1  UNL1        0.0901
     19 C         139.7162  137.8754  165.4491 C.ar    1  UNL1        0.0212
     20 C         138.4483  138.5455  165.8887 C.ar    1  UNL1        0.0754
     21 C         138.0402  139.8531  165.2776 C.ar    1  UNL1        0.0382
     22 C         138.9000  140.4907  164.2267 C.ar    1  UNL1        0.1318
     23 N         140.1680  139.8206  163.7871 N.ar    1  UNL1       -0.2325
     24 N         138.4919  141.7983  163.6156 N.pl3   1  UNL1       -0.2851
     25 C         138.5034  142.1295  162.1526 C.3     1  UNL1        0.1187
     26 C         138.0192  143.5402  161.9928 C.2     1  UNL1       -0.0076
     27 C         137.7085  144.0809  163.3571 C.2     1  UNL1       -0.0076
     28 C         138.0006  143.0043  164.3600 C.3     1  UNL1        0.1187
     29 C         137.5884  137.9080  166.9396 C.3     1  UNL1        0.4187
     30 F         136.7285  137.2706  167.9904 F       1  UNL1       -0.1659
     31 F         137.5477  139.2047  167.6928 F       1  UNL1       -0.1659
     32 F         137.6292  136.6115  166.1864 F       1  UNL1       -0.1659
@<TRIPOS>BOND
     1     3     4    1
     2     4     5    1
     3     5     6    1
     4     6     7    1
     5     7     2    1
     6     2     1    1
     7     1    17    1
     8    17    18    1
     9    18    19   ar
    10    19    20   ar
    11    20    29    1
    12    29    30    1
    13    29    31    1
    14    29    32    1
    15    20    21   ar
    16    21    22   ar
    17    22    24    1
    18    24    25    1
    19    25    26    1
    20    26    27    2
    21    27    28    1
    22    22    23   ar
    23     7    10    1
    24    10    11   ar
    25    11    12   ar
    26    12    13   ar
    27    13    14    1
    28    13    15   ar
    29    15    16   ar
    30     7     8    1
    31     8     9    1
    32     9     4    1
    33    23    18   ar
    34    16    10   ar
    35    28    24    1
@<TRIPOS>MOLECULE
*****
 32 35 0 0 0
SMALL
GASTEIGER

@<TRIPOS>ATOM
      1 O         140.1814  141.2252  162.0513 O.3     1  UNL1       -0.3470
      2 C         141.6180  140.8511  162.2666 C.3     1  UNL1        0.1467
      3 C         142.6990  137.5540  157.7056 C.3     1  UNL1        0.0896
      4 N         142.5178  138.2277  159.0335 N.3     1  UNL1       -0.2715
      5 C         142.9640  137.5408  160.2901 C.3     1  UNL1        0.0725
      6 C         142.7828  138.2146  161.6180 C.3     1  UNL1        0.0238
      7 C         142.1553  139.5751  161.6893 C.3     1  UNL1        0.0489
      8 C         141.7090  140.2619  160.4327 C.3     1  UNL1        0.0238
      9 C         141.8903  139.5882  159.1048 C.3     1  UNL1        0.0725
     10 C         142.4150  139.3314  163.1464 C.ar    1  UNL1       -0.0202
     11 C         141.8615  138.1065  163.8123 C.ar    1  UNL1       -0.0019
     12 C         142.1212  137.8627  165.2693 C.ar    1  UNL1        0.0293
     13 C         142.9343  138.8439  166.0606 C.ar    1  UNL1        0.1401
     14 F         143.1940  138.6002  167.5177 F       1  UNL1       -0.2042
     15 C         143.4878  140.0688  165.3948 C.ar    1  UNL1        0.0293
     16 C         143.2281  140.3125  163.9377 C.ar    1  UNL1       -0.0019
     17 C         139.3833  141.8148  163.1762 C.3     1  UNL1        0.1875
     18 C         139.4450  141.1993  164.5427 C.ar    1  UNL1        0.0901
     19 C         138.7359  139.9059  164.8154 C.ar    1  UNL1        0.0212
     20 C         138.7977  139.2905  166.1819 C.ar    1  UNL1        0.0754
     21 C         139.5684  139.9683  167.2757 C.ar    1  UNL1        0.0382
     22 C         140.2775  141.2617  167.0030 C.ar    1  UNL1        0.1318
     23 N         140.2158  141.8772  165.6365 N.ar    1  UNL1       -0.2325
     24 N         141.0483  141.9396  168.0968 N.pl3   1  UNL1       -0.2851
     25 C         140.4995  142.9349  169.0757 C.3     1  UNL1        0.1187
     26 C         141.6151  143.3517  169.9877 C.2     1  UNL1       -0.0076
     27 C         142.8533  142.6139  169.5724 C.2     1  UNL1       -0.0076
     28 C         142.5030  141.7412  168.4038 C.3     1  UNL1        0.1187
     29 C         138.0886  137.9970  166.4547 C.3     1  UNL1        0.4187
     30 F         137.3796  136.7036  166.7274 F       1  UNL1       -0.1659
     31 F         138.8434  137.3468  165.3332 F       1  UNL1       -0.1659
     32 F         137.3339  138.6473  167.5761 F       1  UNL1       -0.1659
@<TRIPOS>BOND
     1     3     4    1
     2     4     5    1
     3     5     6    1
     4     6     7    1
     5     7     2    1
     6     2     1    1
     7     1    17    1
     8    17    18    1
     9    18    19   ar
    10    19    20   ar
    11    20    29    1
    12    29    30    1
    13    29    31    1
    14    29    32    1
    15    20    21   ar
    16    21    22   ar
    17    22    24    1
    18    24    25    1
    19    25    26    1
    20    26    27    2
    21    27    28    1
    22    22    23   ar
    23     7    10    1
    24    10    11   ar
    25    11    12   ar
    26    12    13   ar
    27    13    14    1
    28    13    15   ar
    29    15    16   ar
    30     7     8    1
    31     8     9    1
    32     9     4    1
    33    23    18   ar
    34    16    10   ar
    35    28    24    1
@<TRIPOS>MOLECULE
*****
 32 35 0 0 0
SMALL
GASTEIGER

@<TRIPOS>ATOM
      1 O         143.5735  140.7286  165.8161 O.3     1  UNL1       -0.3470
      2 C         142.5851  139.6494  166.1453 C.3     1  UNL1        0.1467
      3 C         140.9671  141.6237  171.2762 C.3     1  UNL1        0.0896
      4 N         141.1457  141.0509  169.9014 N.3     1  UNL1       -0.2715
      5 C         139.9611  140.5182  169.1512 C.3     1  UNL1        0.0725
      6 C         140.1396  139.9454  167.7765 C.3     1  UNL1        0.0238
      7 C         141.5028  139.9054  167.1519 C.3     1  UNL1        0.0489
      8 C         142.6874  140.4381  167.9021 C.3     1  UNL1        0.0238
      9 C         142.5088  141.0109  169.2769 C.3     1  UNL1        0.0725
     10 C         140.6940  139.2837  166.0521 C.ar    1  UNL1       -0.0202
     11 C         141.3123  138.2491  165.1592 C.ar    1  UNL1       -0.0019
     12 C         140.5036  137.6275  164.0595 C.ar    1  UNL1        0.0293
     13 C         139.0765  138.0405  163.8526 C.ar    1  UNL1        0.1401
     14 F         138.2677  137.4189  162.7528 F       1  UNL1       -0.2042
     15 C         138.4581  139.0751  164.7454 C.ar    1  UNL1        0.0293
     16 C         139.2669  139.6967  165.8452 C.ar    1  UNL1       -0.0019
     17 C         143.3240  141.6454  164.6553 C.3     1  UNL1        0.1875
     18 C         141.9184  141.9821  164.2543 C.ar    1  UNL1        0.0901
     19 C         141.1618  143.0456  164.9937 C.ar    1  UNL1        0.0212
     20 C         139.7562  143.3823  164.5926 C.ar    1  UNL1        0.0754
     21 C         139.1072  142.6556  163.4521 C.ar    1  UNL1        0.0382
     22 C         139.8637  141.5921  162.7127 C.ar    1  UNL1        0.1318
     23 N         141.2694  141.2554  163.1138 N.ar    1  UNL1       -0.2325
     24 N         139.2147  140.8655  161.5723 N.pl3   1  UNL1       -0.2851
     25 C         137.7408  140.6627  161.3807 C.3     1  UNL1        0.1187
     26 C         137.5406  139.8859  160.1133 C.2     1  UNL1       -0.0076
     27 C         138.8908  139.6085  159.5215 C.2     1  UNL1       -0.0076
     28 C         139.9254  140.2139  160.4233 C.3     1  UNL1        0.1187
     29 C         138.9996  144.4458  165.3319 C.3     1  UNL1        0.4187
     30 F         138.2430  145.5091  166.0713 F       1  UNL1       -0.1659
     31 F         139.5550  143.9385  166.6298 F       1  UNL1       -0.1659
     32 F         138.4442  144.9529  164.0341 F       1  UNL1       -0.1659
@<TRIPOS>BOND
     1     3     4    1
     2     4     5    1
     3     5     6    1
     4     6     7    1
     5     7     2    1
     6     2     1    1
     7     1    17    1
     8    17    18    1
     9    18    19   ar
    10    19    20   ar
    11    20    29    1
    12    29    30    1
    13    29    31    1
    14    29    32    1
    15    20    21   ar
    16    21    22   ar
    17    22    24    1
    18    24    25    1
    19    25    26    1
    20    26    27    2
    21    27    28    1
    22    22    23   ar
    23     7    10    1
    24    10    11   ar
    25    11    12   ar
    26    12    13   ar
    27    13    14    1
    28    13    15   ar
    29    15    16   ar
    30     7     8    1
    31     8     9    1
    32     9     4    1
    33    23    18   ar
    34    16    10   ar
    35    28    24    1
@<TRIPOS>MOLECULE
*****
 32 35 0 0 0
SMALL
GASTEIGER

@<TRIPOS>ATOM
      1 O         138.4798  138.0978  163.5029 O.3     1  UNL1       -0.3470
      2 C         138.3262  139.5218  163.0574 C.3     1  UNL1        0.1467
      3 C         141.2912  139.0497  158.1761 C.3     1  UNL1        0.0896
      4 N         140.6234  139.4015  159.4723 N.3     1  UNL1       -0.2715
      5 C         140.8959  140.7262  160.1211 C.3     1  UNL1        0.0725
      6 C         140.2281  141.0779  161.4173 C.3     1  UNL1        0.0238
      7 C         139.2878  140.1050  162.0649 C.3     1  UNL1        0.0489
      8 C         139.0153  138.7804  161.4161 C.3     1  UNL1        0.0238
      9 C         139.6831  138.4286  160.1198 C.3     1  UNL1        0.0725
     10 C         139.2263  141.2272  163.0583 C.ar    1  UNL1       -0.0202
     11 C         140.4926  141.7973  163.6251 C.ar    1  UNL1       -0.0019
     12 C         140.4312  142.9195  164.6186 C.ar    1  UNL1        0.0293
     13 C         139.1034  143.4715  165.0452 C.ar    1  UNL1        0.1401
     14 F         139.0419  144.5937  166.0387 F       1  UNL1       -0.2042
     15 C         137.8370  142.9014  164.4785 C.ar    1  UNL1        0.0293
     16 C         137.8985  141.7792  163.4850 C.ar    1  UNL1       -0.0019
     17 C         138.9581  137.7939  164.8918 C.3     1  UNL1        0.1875
     18 C         140.0515  138.6172  165.5054 C.ar    1  UNL1        0.0901
     19 C         141.4637  138.4685  165.0219 C.ar    1  UNL1        0.0212
     20 C         142.5571  139.2919  165.6356 C.ar    1  UNL1        0.0754
     21 C         142.2383  140.2640  166.7325 C.ar    1  UNL1        0.0382
     22 C         140.8261  140.4128  167.2159 C.ar    1  UNL1        0.1318
     23 N         139.7327  139.5894  166.6023 N.ar    1  UNL1       -0.2325
     24 N         140.5074  141.3849  168.3129 N.pl3   1  UNL1       -0.2851
     25 C         140.8549  142.8441  168.3262 C.3     1  UNL1        0.1187
     26 C         140.3476  143.4297  169.6106 C.2     1  UNL1       -0.0076
     27 C         139.6865  142.3324  170.3911 C.2     1  UNL1       -0.0076
     28 C         139.7854  141.0687  169.5890 C.3     1  UNL1        0.1187
     29 C         143.9693  139.1431  165.1522 C.3     1  UNL1        0.4187
     30 F         145.3815  138.9944  164.6689 F       1  UNL1       -0.1659
     31 F         144.2417  138.1590  166.2510 F       1  UNL1       -0.1659
     32 F         143.6969  140.1273  164.0535 F       1  UNL1       -0.1659
@<TRIPOS>BOND
     1     3     4    1
     2     4     5    1
     3     5     6    1
     4     6     7    1
     5     7     2    1
     6     2     1    1
     7     1    17    1
     8    17    18    1
     9    18    19   ar
    10    19    20   ar
    11    20    29    1
    12    29    30    1
    13    29    31    1
    14    29    32    1
    15    20    21   ar
    16    21    22   ar
    17    22    24    1
    18    24    25    1
    19    25    26    1
    20    26    27    2
    21    27    28    1
    22    22    23   ar
    23     7    10    1
    24    10    11   ar
    25    11    12   ar
    26    12    13   ar
    27    13    14    1
    28    13    15   ar
    29    15    16   ar
    30     7     8    1
    31     8     9    1
    32     9     4    1
    33    23    18   ar
    34    16    10   ar
    35    28    24    1
@<TRIPOS>MOLECULE
*****
 32 35 0 0 0
SMALL
GASTEIGER

@<TRIPOS>ATOM
      1 O         143.4026  141.2496  165.3192 O.3     1  UNL1       -0.3470
      2 C         142.4598  142.4085  165.4530 C.3     1  UNL1        0.1467
      3 C         141.9040  141.9949  171.1418 C.3     1  UNL1        0.0896
      4 N         141.8083  142.1803  169.6564 N.3     1  UNL1       -0.2715
      5 C         140.5258  142.6563  169.0411 C.3     1  UNL1        0.0725
      6 C         140.4300  142.8416  167.5557 C.3     1  UNL1        0.0238
      7 C         141.6168  142.5510  166.6855 C.3     1  UNL1        0.0489
      8 C         142.8992  142.0750  167.3008 C.3     1  UNL1        0.0238
      9 C         142.9950  141.8897  168.7862 C.3     1  UNL1        0.0725
     10 C         140.6270  142.9775  165.6422 C.ar    1  UNL1       -0.0202
     11 C         139.2439  142.3972  165.6387 C.ar    1  UNL1       -0.0019
     12 C         138.2541  142.8236  164.5955 C.ar    1  UNL1        0.0293
     13 C         138.6476  143.8305  163.5556 C.ar    1  UNL1        0.1401
     14 F         137.6578  144.2570  162.5122 F       1  UNL1       -0.2042
     15 C         140.0307  144.4109  163.5590 C.ar    1  UNL1        0.0293
     16 C         141.0205  143.9844  164.6023 C.ar    1  UNL1       -0.0019
     17 C         143.0277  140.0721  164.4688 C.3     1  UNL1        0.1875
     18 C         141.5885  139.8199  164.1296 C.ar    1  UNL1        0.0901
     19 C         140.6977  139.1205  165.1132 C.ar    1  UNL1        0.0212
     20 C         139.2585  138.8683  164.7739 C.ar    1  UNL1        0.0754
     21 C         138.7101  139.3154  163.4513 C.ar    1  UNL1        0.0382
     22 C         139.6010  140.0147  162.4678 C.ar    1  UNL1        0.1318
     23 N         141.0402  140.2670  162.8069 N.ar    1  UNL1       -0.2325
     24 N         139.0526  140.4618  161.1452 N.pl3   1  UNL1       -0.2851
     25 C         139.1073  141.8558  160.5939 C.3     1  UNL1        0.1187
     26 C         138.4418  141.8491  159.2496 C.2     1  UNL1       -0.0076
     27 C         137.9758  140.4510  158.9701 C.2     1  UNL1       -0.0076
     28 C         138.3533  139.5936  160.1417 C.3     1  UNL1        0.1187
     29 C         138.3675  138.1689  165.7574 C.3     1  UNL1        0.4187
     30 F         137.4767  137.4695  166.7408 F       1  UNL1       -0.1659
     31 F         139.0290  136.8634  165.4282 F       1  UNL1       -0.1659
     32 F         137.7061  139.4743  166.0866 F       1  UNL1       -0.1659
@<TRIPOS>BOND
     1     3     4    1
     2     4     5    1
     3     5     6    1
     4     6     7    1
     5     7     2    1
     6     2     1    1
     7     1    17    1
     8    17    18    1
     9    18    19   ar
    10    19    20   ar
    11    20    29    1
    12    29    30    1
    13    29    31    1
    14    29    32    1
    15    20    21   ar
    16    21    22   ar
    17    22    24    1
    18    24    25    1
    19    25    26    1
    20    26    27    2
    21    27    28    1
    22    22    23   ar
    23     7    10    1
    24    10    11   ar
    25    11    12   ar
    26    12    13   ar
    27    13    14    1
    28    13    15   ar
    29    15    16   ar
    30     7     8    1
    31     8     9    1
    32     9     4    1
    33    23    18   ar
    34    16    10   ar
    35    28    24    1
@<TRIPOS>MOLECULE
*****
 32 35 0 0 0
SMALL
GASTEIGER

@<TRIPOS>ATOM
      1 O         143.6813  138.5592  163.2941 O.3     1  UNL1       -0.3470
      2 C         142.3294  137.9224  163.1644 C.3     1  UNL1        0.1467
      3 C         141.6893  138.3594  157.4862 C.3     1  UNL1        0.0896
      4 N         141.6143  138.3174  158.9838 N.3     1  UNL1       -0.2715
      5 C         140.3344  138.6719  159.6809 C.3     1  UNL1        0.0725
      6 C         140.2595  138.6299  161.1785 C.3     1  UNL1        0.0238
      7 C         141.4645  138.2333  161.9788 C.3     1  UNL1        0.0489
      8 C         142.7444  137.8788  161.2817 C.3     1  UNL1        0.0238
      9 C         142.8193  137.9208  159.7841 C.3     1  UNL1        0.0725
     10 C         140.4849  138.4799  163.0877 C.ar    1  UNL1       -0.0202
     11 C         140.3674  137.4992  164.2166 C.ar    1  UNL1       -0.0019
     12 C         139.3879  137.7457  165.3255 C.ar    1  UNL1        0.0293
     13 C         138.5258  138.9730  165.3055 C.ar    1  UNL1        0.1401
     14 F         137.5462  139.2195  166.4144 F       1  UNL1       -0.2042
     15 C         138.6432  139.9538  164.1766 C.ar    1  UNL1        0.0293
     16 C         139.6228  139.7072  163.0677 C.ar    1  UNL1       -0.0019
     17 C         144.0732  139.2326  164.5759 C.3     1  UNL1        0.1875
     18 C         143.0420  139.9599  165.3868 C.ar    1  UNL1        0.0901
     19 C         142.6914  139.4756  166.7626 C.ar    1  UNL1        0.0212
     20 C         141.6601  140.2029  167.5734 C.ar    1  UNL1        0.0754
     21 C         140.9795  141.4144  167.0086 C.ar    1  UNL1        0.0382
     22 C         141.3301  141.8986  165.6328 C.ar    1  UNL1        0.1318
     23 N         142.3613  141.1714  164.8219 N.ar    1  UNL1       -0.2325
     24 N         140.6494  143.1101  165.0681 N.pl3   1  UNL1       -0.2851
     25 C         139.2516  143.5595  165.3752 C.3     1  UNL1        0.1187
     26 C         138.9852  144.8120  164.5940 C.2     1  UNL1       -0.0076
     27 C         140.2184  145.1367  163.8041 C.2     1  UNL1       -0.0076
     28 C         141.2469  144.0848  164.0971 C.3     1  UNL1        0.1187
     29 C         141.3095  139.7188  168.9492 C.3     1  UNL1        0.4187
     30 F         140.9589  139.2346  170.3249 F       1  UNL1       -0.1659
     31 F         142.7567  139.7791  169.3392 F       1  UNL1       -0.1659
     32 F         139.8623  139.6585  168.5591 F       1  UNL1       -0.1659
@<TRIPOS>BOND
     1     3     4    1
     2     4     5    1
     3     5     6    1
     4     6     7    1
     5     7     2    1
     6     2     1    1
     7     1    17    1
     8    17    18    1
     9    18    19   ar
    10    19    20   ar
    11    20    29    1
    12    29    30    1
    13    29    31    1
    14    29    32    1
    15    20    21   ar
    16    21    22   ar
    17    22    24    1
    18    24    25    1
    19    25    26    1
    20    26    27    2
    21    27    28    1
    22    22    23   ar
    23     7    10    1
    24    10    11   ar
    25    11    12   ar
    26    12    13   ar
    27    13    14    1
    28    13    15   ar
    29    15    16   ar
    30     7     8    1
    31     8     9    1
    32     9     4    1
    33    23    18   ar
    34    16    10   ar
    35    28    24    1
@<TRIPOS>MOLECULE
*****
 32 35 0 0 0
SMALL
GASTEIGER

@<TRIPOS>ATOM
      1 O         138.8582  144.8123  163.0501 O.3     1  UNL1       -0.3470
      2 C         140.2871  144.6391  162.6279 C.3     1  UNL1        0.1467
      3 C         139.3513  140.6096  158.6618 C.3     1  UNL1        0.0896
      4 N         139.8065  141.5333  159.7525 N.3     1  UNL1       -0.2715
      5 C         141.0829  141.2528  160.4888 C.3     1  UNL1        0.0725
      6 C         141.5381  142.1764  161.5795 C.3     1  UNL1        0.0238
      7 C         140.7169  143.3805  161.9340 C.3     1  UNL1        0.0489
      8 C         139.4405  143.6610  161.1977 C.3     1  UNL1        0.0238
      9 C         138.9853  142.7374  160.1070 C.3     1  UNL1        0.0725
     10 C         141.8441  143.5371  162.9113 C.ar    1  UNL1       -0.0202
     11 C         142.4943  144.8758  163.0980 C.ar    1  UNL1       -0.0019
     12 C         143.6214  145.0325  164.0753 C.ar    1  UNL1        0.0293
     13 C         144.0983  143.8502  164.8657 C.ar    1  UNL1        0.1401
     14 F         145.2255  144.0068  165.8430 F       1  UNL1       -0.2042
     15 C         143.4481  142.5114  164.6790 C.ar    1  UNL1        0.0293
     16 C         142.3210  142.3549  163.7017 C.ar    1  UNL1       -0.0019
     17 C         138.4512  144.5087  164.4615 C.3     1  UNL1        0.1875
     18 C         139.0241  143.3154  165.1671 C.ar    1  UNL1        0.0901
     19 C         138.6501  141.9316  164.7249 C.ar    1  UNL1        0.0212
     20 C         139.2230  140.7384  165.4306 C.ar    1  UNL1        0.0754
     21 C         140.1698  140.9287  166.5782 C.ar    1  UNL1        0.0382
     22 C         140.5439  142.3125  167.0204 C.ar    1  UNL1        0.1318
     23 N         139.9710  143.5058  166.3148 N.ar    1  UNL1       -0.2325
     24 N         141.4907  142.5029  168.1680 N.pl3   1  UNL1       -0.2851
     25 C         142.9436  142.1301  168.1835 C.3     1  UNL1        0.1187
     26 C         143.5019  142.4962  169.5266 C.2     1  UNL1       -0.0076
     27 C         142.3940  143.0953  170.3414 C.2     1  UNL1       -0.0076
     28 C         141.1510  143.0994  169.5017 C.3     1  UNL1        0.1187
     29 C         138.8490  139.3546  164.9885 C.3     1  UNL1        0.4187
     30 F         138.4751  137.9709  164.5464 F       1  UNL1       -0.1659
     31 F         137.7501  139.9227  164.1401 F       1  UNL1       -0.1659
     32 F         139.9480  138.7866  165.8368 F       1  UNL1       -0.1659
@<TRIPOS>BOND
     1     3     4    1
     2     4     5    1
     3     5     6    1
     4     6     7    1
     5     7     2    1
     6     2     1    1
     7     1    17    1
     8    17    18    1
     9    18    19   ar
    10    19    20   ar
    11    20    29    1
    12    29    30    1
    13    29    31    1
    14    29    32    1
    15    20    21   ar
    16    21    22   ar
    17    22    24    1
    18    24    25    1
    19    25    26    1
    20    26    27    2
    21    27    28    1
    22    22    23   ar
    23     7    10    1
    24    10    11   ar
    25    11    12   ar
    26    12    13   ar
    27    13    14    1
    28    13    15   ar
    29    15    16   ar
    30     7     8    1
    31     8     9    1
    32     9     4    1
    33    23    18   ar
    34    16    10   ar
    35    28    24    1
@<TRIPOS>MOLECULE
*****
 32 35 0 0 0
SMALL
GASTEIGER

@<TRIPOS>ATOM
      1 O         139.1515  144.8797  163.5374 O.3     1  UNL1       -0.3470
      2 C         140.6334  144.7097  163.3788 C.3     1  UNL1        0.1467
      3 C         141.0240  145.5279  157.7202 C.3     1  UNL1        0.0896
      4 N         141.0843  145.1232  159.1633 N.3     1  UNL1       -0.2715
      5 C         141.9465  143.9700  159.5835 C.3     1  UNL1        0.0725
      6 C         142.0068  143.5653  161.0266 C.3     1  UNL1        0.0238
      7 C         141.2048  144.3139  162.0496 C.3     1  UNL1        0.0489
      8 C         140.3426  145.4671  161.6294 C.3     1  UNL1        0.0238
      9 C         140.2823  145.8718  160.1863 C.3     1  UNL1        0.0725
     10 C         141.8686  143.2981  162.9314 C.ar    1  UNL1       -0.0202
     11 C         141.6132  141.8360  162.7152 C.ar    1  UNL1       -0.0019
     12 C         142.2769  140.8201  163.5969 C.ar    1  UNL1        0.0293
     13 C         143.1962  141.2666  164.6949 C.ar    1  UNL1        0.1401
     14 F         143.8600  140.2508  165.5768 F       1  UNL1       -0.2042
     15 C         143.4517  142.7287  164.9112 C.ar    1  UNL1        0.0293
     16 C         142.7879  143.7445  164.0294 C.ar    1  UNL1       -0.0019
     17 C         138.4514  144.2868  164.7242 C.3     1  UNL1        0.1875
     18 C         139.0497  143.1108  165.4376 C.ar    1  UNL1        0.0901
     19 C         138.6627  141.7168  165.0412 C.ar    1  UNL1        0.0212
     20 C         139.2611  140.5409  165.7547 C.ar    1  UNL1        0.0754
     21 C         140.2464  140.7588  166.8645 C.ar    1  UNL1        0.0382
     22 C         140.6334  142.1528  167.2609 C.ar    1  UNL1        0.1318
     23 N         140.0350  143.3288  166.5475 N.ar    1  UNL1       -0.2325
     24 N         141.6187  142.3707  168.3707 N.pl3   1  UNL1       -0.2851
     25 C         143.0273  141.8568  168.4126 C.3     1  UNL1        0.1187
     26 C         143.6477  142.3092  169.7011 C.2     1  UNL1       -0.0076
     27 C         142.6224  143.1027  170.4556 C.2     1  UNL1       -0.0076
     28 C         141.3685  143.1407  169.6333 C.3     1  UNL1        0.1187
     29 C         138.8741  139.1468  165.3583 C.3     1  UNL1        0.4187
     30 F         138.4872  137.7529  164.9621 F       1  UNL1       -0.1659
     31 F         138.5380  138.8342  166.7864 F       1  UNL1       -0.1659
     32 F         139.2102  139.4596  163.9303 F       1  UNL1       -0.1659
@<TRIPOS>BOND
     1     3     4    1
     2     4     5    1
     3     5     6    1
     4     6     7    1
     5     7     2    1
     6     2     1    1
     7     1    17    1
     8    17    18    1
     9    18    19   ar
    10    19    20   ar
    11    20    29    1
    12    29    30    1
    13    29    31    1
    14    29    32    1
    15    20    21   ar
    16    21    22   ar
    17    22    24    1
    18    24    25    1
    19    25    26    1
    20    26    27    2
    21    27    28    1
    22    22    23   ar
    23     7    10    1
    24    10    11   ar
    25    11    12   ar
    26    12    13   ar
    27    13    14    1
    28    13    15   ar
    29    15    16   ar
    30     7     8    1
    31     8     9    1
    32     9     4    1
    33    23    18   ar
    34    16    10   ar
    35    28    24    1
