@<TRIPOS>MOLECULE
*****
 34 37 0 0 0
SMALL
GASTEIGER

@<TRIPOS>ATOM
      1 C         139.9320  143.7985  162.3228 C.3     1  UNL1        0.0900
      2 C         141.1253  143.2871  161.5714 C.3     1  UNL1        0.0359
      3 C         142.5051  143.5028  162.1186 C.3     1  UNL1        0.0737
      4 N         142.6917  144.2298  163.4174 N.3     1  UNL1       -0.2687
      5 C         141.4984  144.7412  164.1688 C.3     1  UNL1        0.1092
      6 C         140.1186  144.5255  163.6215 C.3     1  UNL1        0.1911
      7 F         138.9253  145.0368  164.3729 F       1  UNL1       -0.2343
      8 N         138.5521  143.5828  161.7755 N.3     1  UNL1       -0.2925
      9 H         138.0812  144.4873  161.7994 H       1  UNL1        0.1236
     10 C         137.6308  142.5974  162.4312 C.3     1  UNL1        0.0972
     11 C         139.7845  137.3933  164.4998 C.3     1  UNL1        0.0528
     12 C         139.2461  138.6944  163.9826 C.ar    1  UNL1        0.0689
     13 N         139.5500  139.1269  162.5789 N.ar    1  UNL1       -0.2477
     14 C         139.0115  140.4279  162.0618 C.ar    1  UNL1        0.0955
     15 C         138.1692  141.2964  162.9484 C.ar    1  UNL1        0.0135
     16 C         137.8653  140.8639  164.3521 C.ar    1  UNL1        0.0101
     17 C         138.4037  139.5629  164.8692 C.ar    1  UNL1        0.0817
     18 C         138.0998  139.1304  166.2731 C.1     1  UNL1        0.1016
     19 N         137.7958  138.6979  167.6768 N.1     1  UNL1       -0.1908
     20 C         144.0715  144.4455  163.9647 C.3     1  UNL1        0.0970
     21 C         144.6181  143.5168  165.0082 C.3     1  UNL1        0.1263
     22 N         144.2578  142.0610  164.9794 N.ar    1  UNL1       -0.2941
     23 C         144.9465  141.1369  164.0194 C.ar    1  UNL1        0.2610
     24 O         145.9955  141.6685  163.0882 O.2     1  UNL1       -0.2670
     25 C         144.5862  139.6810  163.9906 C.ar    1  UNL1        0.0608
     26 C         143.5373  139.1494  164.9217 C.ar    1  UNL1        0.0063
     27 C         142.8486  140.0736  165.8818 C.ar    1  UNL1        0.0161
     28 C         141.7997  139.5419  166.8129 C.ar    1  UNL1        0.0021
     29 C         141.1110  140.4660  167.7729 C.ar    1  UNL1        0.0104
     30 C         141.4713  141.9219  167.8018 C.ar    1  UNL1        0.0699
     31 C         142.5202  142.4535  166.8706 C.ar    1  UNL1        0.0275
     32 C         143.2088  141.5294  165.9106 C.ar    1  UNL1        0.0631
     33 C         140.7825  142.8460  168.7618 C.1     1  UNL1        0.1005
     34 N         140.0938  143.7701  169.7219 N.1     1  UNL1       -0.1908
@<TRIPOS>BOND
     1    11    12    1
     2    12    13   ar
     3    13    14   ar
     4    14    15   ar
     5    15    10    1
     6    10     8    1
     7     1     8    1
     8     1     2    1
     9     2     3    1
    10     3     4    1
    11     4    20    1
    12    20    21    1
    13    21    22    1
    14    22    23   ar
    15    23    24    2
    16    23    25   ar
    17    25    26   ar
    18    26    27   ar
    19    27    28   ar
    20    28    29   ar
    21    29    30   ar
    22    30    33    1
    23    33    34    3
    24    30    31   ar
    25    31    32   ar
    26     4     5    1
    27     5     6    1
    28     6     7    1
    29    15    16   ar
    30    16    17   ar
    31    17    18    1
    32    18    19    3
    33    17    12   ar
    34     6     1    1
    35    32    22   ar
    36    32    27   ar
    37     8     9    1
@<TRIPOS>MOLECULE
*****
 34 37 0 0 0
SMALL
GASTEIGER

@<TRIPOS>ATOM
      1 C         138.4422  144.0464  162.7789 C.3     1  UNL1        0.0900
      2 C         138.2747  142.8157  161.9377 C.3     1  UNL1        0.0359
      3 C         138.1375  141.4730  162.5920 C.3     1  UNL1        0.0737
      4 N         138.1678  141.3608  164.0876 N.3     1  UNL1       -0.2687
      5 C         138.3353  142.5914  164.9287 C.3     1  UNL1        0.1092
      6 C         138.4725  143.9342  164.2744 C.3     1  UNL1        0.1911
      7 F         138.6401  145.1648  165.1155 F       1  UNL1       -0.2343
      8 N         138.5794  145.3891  162.1246 N.3     1  UNL1       -0.2925
      9 H         138.2858  145.2753  161.1544 H       1  UNL1        0.1236
     10 C         139.9122  146.0767  162.0958 C.3     1  UNL1        0.0972
     11 C         144.9609  142.8348  162.0765 C.3     1  UNL1        0.0528
     12 C         143.6987  143.6453  162.0813 C.ar    1  UNL1        0.0689
     13 N         142.8535  143.7245  160.8447 N.ar    1  UNL1       -0.2477
     14 C         141.5913  144.5349  160.8495 C.ar    1  UNL1        0.0955
     15 C         141.1744  145.2663  162.0910 C.ar    1  UNL1        0.0135
     16 C         142.0196  145.1871  163.3276 C.ar    1  UNL1        0.0101
     17 C         143.2817  144.3766  163.3228 C.ar    1  UNL1        0.0817
     18 C         144.1270  144.2975  164.5595 C.1     1  UNL1        0.1016
     19 N         144.9722  144.2183  165.7961 N.1     1  UNL1       -0.1908
     20 C         138.0306  140.0181  164.7419 C.3     1  UNL1        0.0970
     21 C         138.9894  139.6077  165.8201 C.3     1  UNL1        0.1263
     22 N         140.4358  139.9937  165.7243 N.ar    1  UNL1       -0.2941
     23 C         141.2672  139.5074  164.5744 C.ar    1  UNL1        0.2610
     24 O         140.6523  138.6351  163.5203 O.2     1  UNL1       -0.2670
     25 C         142.7135  139.8934  164.4785 C.ar    1  UNL1        0.0608
     26 C         143.3284  140.7656  165.5326 C.ar    1  UNL1        0.0063
     27 C         142.4970  141.2519  166.6825 C.ar    1  UNL1        0.0161
     28 C         143.1119  142.1242  167.7366 C.ar    1  UNL1        0.0021
     29 C         142.2805  142.6104  168.8864 C.ar    1  UNL1        0.0104
     30 C         140.8341  142.2245  168.9823 C.ar    1  UNL1        0.0699
     31 C         140.2192  141.3522  167.9282 C.ar    1  UNL1        0.0275
     32 C         141.0507  140.8660  166.7784 C.ar    1  UNL1        0.0631
     33 C         140.0027  142.7108  170.1322 C.1     1  UNL1        0.1005
     34 N         139.1713  143.1970  171.2821 N.1     1  UNL1       -0.1908
@<TRIPOS>BOND
     1    11    12    1
     2    12    13   ar
     3    13    14   ar
     4    14    15   ar
     5    15    10    1
     6    10     8    1
     7     1     8    1
     8     1     2    1
     9     2     3    1
    10     3     4    1
    11     4    20    1
    12    20    21    1
    13    21    22    1
    14    22    23   ar
    15    23    24    2
    16    23    25   ar
    17    25    26   ar
    18    26    27   ar
    19    27    28   ar
    20    28    29   ar
    21    29    30   ar
    22    30    33    1
    23    33    34    3
    24    30    31   ar
    25    31    32   ar
    26     4     5    1
    27     5     6    1
    28     6     7    1
    29    15    16   ar
    30    16    17   ar
    31    17    18    1
    32    18    19    3
    33    17    12   ar
    34     6     1    1
    35    32    22   ar
    36    32    27   ar
    37     8     9    1
@<TRIPOS>MOLECULE
*****
 34 37 0 0 0
SMALL
GASTEIGER

@<TRIPOS>ATOM
      1 C         143.8244  143.4825  162.3707 C.3     1  UNL1        0.0900
      2 C         142.7707  143.4222  161.3047 C.3     1  UNL1        0.0359
      3 C         141.4141  144.0104  161.5570 C.3     1  UNL1        0.0737
      4 N         141.1112  144.6589  162.8752 N.3     1  UNL1       -0.2687
      5 C         142.1648  144.7192  163.9411 C.3     1  UNL1        0.1092
      6 C         143.5214  144.1311  163.6888 C.3     1  UNL1        0.1911
      7 F         144.5751  144.1914  164.7547 F       1  UNL1       -0.2343
      8 N         145.1810  142.8944  162.1184 N.3     1  UNL1       -0.2925
      9 H         145.2141  142.6436  161.1303 H       1  UNL1        0.1236
     10 C         145.6296  141.6868  162.8868 C.3     1  UNL1        0.0972
     11 C         141.6158  137.5885  164.6457 C.3     1  UNL1        0.0528
     12 C         142.6193  138.6131  164.2060 C.ar    1  UNL1        0.0689
     13 N         142.8197  138.8878  162.7450 N.ar    1  UNL1       -0.2477
     14 C         143.8231  139.9124  162.3053 C.ar    1  UNL1        0.0955
     15 C         144.6262  140.6622  163.3265 C.ar    1  UNL1        0.0135
     16 C         144.4258  140.3874  164.7874 C.ar    1  UNL1        0.0101
     17 C         143.4223  139.3628  165.2271 C.ar    1  UNL1        0.0817
     18 C         143.2220  139.0881  166.6881 C.1     1  UNL1        0.1016
     19 N         143.0216  138.8133  168.1490 N.1     1  UNL1       -0.1908
     20 C         139.7546  145.2471  163.1275 C.3     1  UNL1        0.0970
     21 C         138.8155  144.5813  164.0893 C.3     1  UNL1        0.1263
     22 N         138.6927  143.0864  164.1044 N.ar    1  UNL1       -0.2941
     23 C         138.1029  142.3705  162.9257 C.ar    1  UNL1        0.2610
     24 O         137.6358  143.1494  161.7318 O.2     1  UNL1       -0.2670
     25 C         137.9801  140.8756  162.9407 C.ar    1  UNL1        0.0608
     26 C         138.4472  140.0967  164.1344 C.ar    1  UNL1        0.0063
     27 C         139.0371  140.8126  165.3133 C.ar    1  UNL1        0.0161
     28 C         139.5041  140.0337  166.5070 C.ar    1  UNL1        0.0021
     29 C         140.0940  140.7497  167.6857 C.ar    1  UNL1        0.0104
     30 C         140.2168  142.2446  167.6707 C.ar    1  UNL1        0.0699
     31 C         139.7497  143.0235  166.4769 C.ar    1  UNL1        0.0275
     32 C         139.1598  142.3075  165.2982 C.ar    1  UNL1        0.0631
     33 C         140.8066  142.9605  168.8495 C.1     1  UNL1        0.1005
     34 N         141.3965  143.6764  170.0282 N.1     1  UNL1       -0.1908
@<TRIPOS>BOND
     1    11    12    1
     2    12    13   ar
     3    13    14   ar
     4    14    15   ar
     5    15    10    1
     6    10     8    1
     7     1     8    1
     8     1     2    1
     9     2     3    1
    10     3     4    1
    11     4    20    1
    12    20    21    1
    13    21    22    1
    14    22    23   ar
    15    23    24    2
    16    23    25   ar
    17    25    26   ar
    18    26    27   ar
    19    27    28   ar
    20    28    29   ar
    21    29    30   ar
    22    30    33    1
    23    33    34    3
    24    30    31   ar
    25    31    32   ar
    26     4     5    1
    27     5     6    1
    28     6     7    1
    29    15    16   ar
    30    16    17   ar
    31    17    18    1
    32    18    19    3
    33    17    12   ar
    34     6     1    1
    35    32    22   ar
    36    32    27   ar
    37     8     9    1
@<TRIPOS>MOLECULE
*****
 34 37 0 0 0
SMALL
GASTEIGER

@<TRIPOS>ATOM
      1 C         141.6608  138.2336  161.1157 C.3     1  UNL1        0.0900
      2 C         141.3856  139.3328  160.1329 C.3     1  UNL1        0.0359
      3 C         140.0609  140.0364  160.1461 C.3     1  UNL1        0.0737
      4 N         139.0114  139.6408  161.1422 N.3     1  UNL1       -0.2687
      5 C         139.2867  138.5415  162.1250 C.3     1  UNL1        0.1092
      6 C         140.6114  137.8379  162.1117 C.3     1  UNL1        0.1911
      7 F         140.8866  136.7387  163.0945 F       1  UNL1       -0.2343
      8 N         142.9855  137.5299  161.1024 N.3     1  UNL1       -0.2925
      9 H         142.8841  136.7004  161.6872 H       1  UNL1        0.1236
     10 C         144.2183  138.2433  161.5727 C.3     1  UNL1        0.0972
     11 C         143.8016  142.4940  165.7867 C.3     1  UNL1        0.0528
     12 C         143.9058  141.4313  164.7332 C.ar    1  UNL1        0.0689
     13 N         143.8366  139.9834  165.1190 N.ar    1  UNL1       -0.2477
     14 C         143.9408  138.9208  164.0655 C.ar    1  UNL1        0.0955
     15 C         144.1141  139.3059  162.6262 C.ar    1  UNL1        0.0135
     16 C         144.1833  140.7538  162.2404 C.ar    1  UNL1        0.0101
     17 C         144.0791  141.8165  163.2939 C.ar    1  UNL1        0.0817
     18 C         144.1483  143.2644  162.9081 C.1     1  UNL1        0.1016
     19 N         144.2175  144.7123  162.5223 N.1     1  UNL1       -0.1908
     20 C         137.6868  140.3444  161.1555 C.3     1  UNL1        0.0970
     21 C         137.3555  141.2986  162.2645 C.3     1  UNL1        0.1263
     22 N         138.4568  141.9642  163.0352 N.ar    1  UNL1       -0.2941
     23 C         139.1803  143.1389  162.4466 C.ar    1  UNL1        0.2610
     24 O         138.8026  143.6480  161.0871 O.2     1  UNL1       -0.2670
     25 C         140.2817  143.8045  163.2173 C.ar    1  UNL1        0.0608
     26 C         140.6594  143.2954  164.5767 C.ar    1  UNL1        0.0063
     27 C         139.9359  142.1206  165.1655 C.ar    1  UNL1        0.0161
     28 C         140.3136  141.6116  166.5249 C.ar    1  UNL1        0.0021
     29 C         139.5901  140.4369  167.1136 C.ar    1  UNL1        0.0104
     30 C         138.4888  139.7713  166.3428 C.ar    1  UNL1        0.0699
     31 C         138.1110  140.2804  164.9834 C.ar    1  UNL1        0.0275
     32 C         138.8345  141.4551  164.3947 C.ar    1  UNL1        0.0631
     33 C         137.7652  138.5966  166.9316 C.1     1  UNL1        0.1005
     34 N         137.0417  137.4219  167.5203 N.1     1  UNL1       -0.1908
@<TRIPOS>BOND
     1    11    12    1
     2    12    13   ar
     3    13    14   ar
     4    14    15   ar
     5    15    10    1
     6    10     8    1
     7     1     8    1
     8     1     2    1
     9     2     3    1
    10     3     4    1
    11     4    20    1
    12    20    21    1
    13    21    22    1
    14    22    23   ar
    15    23    24    2
    16    23    25   ar
    17    25    26   ar
    18    26    27   ar
    19    27    28   ar
    20    28    29   ar
    21    29    30   ar
    22    30    33    1
    23    33    34    3
    24    30    31   ar
    25    31    32   ar
    26     4     5    1
    27     5     6    1
    28     6     7    1
    29    15    16   ar
    30    16    17   ar
    31    17    18    1
    32    18    19    3
    33    17    12   ar
    34     6     1    1
    35    32    22   ar
    36    32    27   ar
    37     8     9    1
@<TRIPOS>MOLECULE
*****
 34 37 0 0 0
SMALL
GASTEIGER

@<TRIPOS>ATOM
      1 C         138.1196  140.0576  161.9844 C.3     1  UNL1        0.0900
      2 C         137.8642  140.3155  163.4398 C.3     1  UNL1        0.0359
      3 C         137.7484  141.7239  163.9429 C.3     1  UNL1        0.0737
      4 N         137.8879  142.8744  162.9904 N.3     1  UNL1       -0.2687
      5 C         138.1433  142.6164  161.5350 C.3     1  UNL1        0.1092
      6 C         138.2591  141.2080  161.0320 C.3     1  UNL1        0.1911
      7 F         138.5145  140.9501  159.5766 F       1  UNL1       -0.2343
      8 N         138.2355  138.6492  161.4813 N.3     1  UNL1       -0.2925
      9 H         137.7371  138.0573  162.1459 H       1  UNL1        0.1236
     10 C         139.5883  138.0328  161.2822 C.3     1  UNL1        0.0972
     11 C         143.8184  138.6573  165.4913 C.3     1  UNL1        0.0528
     12 C         142.7609  138.5012  164.4390 C.ar    1  UNL1        0.0689
     13 N         141.5851  137.6029  164.6849 N.ar    1  UNL1       -0.2477
     14 C         140.5275  137.4468  163.6326 C.ar    1  UNL1        0.0955
     15 C         140.6459  138.1889  162.3345 C.ar    1  UNL1        0.0135
     16 C         141.8217  139.0872  162.0886 C.ar    1  UNL1        0.0101
     17 C         142.8792  139.2433  163.1409 C.ar    1  UNL1        0.0817
     18 C         144.0551  140.1416  162.8950 C.1     1  UNL1        0.1016
     19 N         145.2310  141.0398  162.6491 N.1     1  UNL1       -0.1908
     20 C         137.7721  144.2827  163.4935 C.3     1  UNL1        0.0970
     21 C         138.8275  144.8449  164.3991 C.3     1  UNL1        0.1263
     22 N         140.2713  144.5117  164.1655 N.ar    1  UNL1       -0.2941
     23 C         141.0020  145.1161  163.0034 C.ar    1  UNL1        0.2610
     24 O         140.2890  146.0539  162.0747 O.2     1  UNL1       -0.2670
     25 C         142.4458  144.7829  162.7698 C.ar    1  UNL1        0.0608
     26 C         143.1588  143.8452  163.6983 C.ar    1  UNL1        0.0063
     27 C         142.4280  143.2406  164.8605 C.ar    1  UNL1        0.0161
     28 C         143.1410  142.3029  165.7891 C.ar    1  UNL1        0.0021
     29 C         142.4103  141.6984  166.9512 C.ar    1  UNL1        0.0104
     30 C         140.9666  142.0317  167.1848 C.ar    1  UNL1        0.0699
     31 C         140.2536  142.9694  166.2562 C.ar    1  UNL1        0.0275
     32 C         140.9843  143.5739  165.0941 C.ar    1  UNL1        0.0631
     33 C         140.2358  141.4271  168.3470 C.1     1  UNL1        0.1005
     34 N         139.5052  140.8226  169.5091 N.1     1  UNL1       -0.1908
@<TRIPOS>BOND
     1    11    12    1
     2    12    13   ar
     3    13    14   ar
     4    14    15   ar
     5    15    10    1
     6    10     8    1
     7     1     8    1
     8     1     2    1
     9     2     3    1
    10     3     4    1
    11     4    20    1
    12    20    21    1
    13    21    22    1
    14    22    23   ar
    15    23    24    2
    16    23    25   ar
    17    25    26   ar
    18    26    27   ar
    19    27    28   ar
    20    28    29   ar
    21    29    30   ar
    22    30    33    1
    23    33    34    3
    24    30    31   ar
    25    31    32   ar
    26     4     5    1
    27     5     6    1
    28     6     7    1
    29    15    16   ar
    30    16    17   ar
    31    17    18    1
    32    18    19    3
    33    17    12   ar
    34     6     1    1
    35    32    22   ar
    36    32    27   ar
    37     8     9    1
@<TRIPOS>MOLECULE
*****
 34 37 0 0 0
SMALL
GASTEIGER

@<TRIPOS>ATOM
      1 C         142.4324  138.3078  162.7760 C.3     1  UNL1        0.0900
      2 C         142.9768  138.3918  164.1713 C.3     1  UNL1        0.0359
      3 C         144.0076  139.4265  164.5131 C.3     1  UNL1        0.0737
      4 N         144.4941  140.3771  163.4596 N.3     1  UNL1       -0.2687
      5 C         143.9498  140.2931  162.0645 C.3     1  UNL1        0.1092
      6 C         142.9189  139.2584  161.7226 C.3     1  UNL1        0.1911
      7 F         142.3746  139.1744  160.3275 F       1  UNL1       -0.2343
      8 N         141.4016  137.2731  162.4342 N.3     1  UNL1       -0.2925
      9 H         141.2814  137.3006  161.4217 H       1  UNL1        0.1236
     10 C         140.0298  137.3539  163.0355 C.3     1  UNL1        0.0972
     11 C         137.5218  142.7037  164.0792 C.3     1  UNL1        0.0528
     12 C         138.1488  141.3662  163.8183 C.ar    1  UNL1        0.0689
     13 N         138.2873  140.3725  164.9333 N.ar    1  UNL1       -0.2477
     14 C         138.9143  139.0350  164.6723 C.ar    1  UNL1        0.0955
     15 C         139.4028  138.6913  163.2964 C.ar    1  UNL1        0.0135
     16 C         139.2644  139.6851  162.1815 C.ar    1  UNL1        0.0101
     17 C         138.6374  141.0226  162.4424 C.ar    1  UNL1        0.0817
     18 C         138.4989  142.0164  161.3273 C.1     1  UNL1        0.1016
     19 N         138.3605  143.0101  160.2123 N.1     1  UNL1       -0.1908
     20 C         145.5250  141.4118  163.8014 C.3     1  UNL1        0.0970
     21 C         145.1071  142.7071  164.4322 C.3     1  UNL1        0.1263
     22 N         143.6795  143.1587  164.3427 N.ar    1  UNL1       -0.2941
     23 C         143.2105  143.9298  163.1446 C.ar    1  UNL1        0.2610
     24 O         144.1692  144.2494  162.0360 O.2     1  UNL1       -0.2670
     25 C         141.7829  144.3814  163.0551 C.ar    1  UNL1        0.0608
     26 C         140.8243  144.0618  164.1636 C.ar    1  UNL1        0.0063
     27 C         141.2932  143.2907  165.3617 C.ar    1  UNL1        0.0161
     28 C         140.3345  142.9711  166.4702 C.ar    1  UNL1        0.0021
     29 C         140.8035  142.2000  167.6683 C.ar    1  UNL1        0.0104
     30 C         142.2311  141.7484  167.7578 C.ar    1  UNL1        0.0699
     31 C         143.1897  142.0679  166.6493 C.ar    1  UNL1        0.0275
     32 C         142.7208  142.8391  165.4513 C.ar    1  UNL1        0.0631
     33 C         142.7000  140.9772  168.9560 C.1     1  UNL1        0.1005
     34 N         143.1689  140.2060  170.1540 N.1     1  UNL1       -0.1908
@<TRIPOS>BOND
     1    11    12    1
     2    12    13   ar
     3    13    14   ar
     4    14    15   ar
     5    15    10    1
     6    10     8    1
     7     1     8    1
     8     1     2    1
     9     2     3    1
    10     3     4    1
    11     4    20    1
    12    20    21    1
    13    21    22    1
    14    22    23   ar
    15    23    24    2
    16    23    25   ar
    17    25    26   ar
    18    26    27   ar
    19    27    28   ar
    20    28    29   ar
    21    29    30   ar
    22    30    33    1
    23    33    34    3
    24    30    31   ar
    25    31    32   ar
    26     4     5    1
    27     5     6    1
    28     6     7    1
    29    15    16   ar
    30    16    17   ar
    31    17    18    1
    32    18    19    3
    33    17    12   ar
    34     6     1    1
    35    32    22   ar
    36    32    27   ar
    37     8     9    1
@<TRIPOS>MOLECULE
*****
 34 37 0 0 0
SMALL
GASTEIGER

@<TRIPOS>ATOM
      1 C         138.4002  140.0508  162.1755 C.3     1  UNL1        0.0900
      2 C         138.4498  141.2754  161.3106 C.3     1  UNL1        0.0359
      3 C         138.2620  142.6327  161.9210 C.3     1  UNL1        0.0737
      4 N         138.0245  142.7654  163.3961 N.3     1  UNL1       -0.2687
      5 C         137.9749  141.5408  164.2609 C.3     1  UNL1        0.1092
      6 C         138.1628  140.1835  163.6506 C.3     1  UNL1        0.1911
      7 F         138.1132  138.9589  164.5154 F       1  UNL1       -0.2343
      8 N         138.5881  138.6935  161.5652 N.3     1  UNL1       -0.2925
      9 H         137.6978  138.2040  161.6560 H       1  UNL1        0.1236
     10 C         139.6452  137.7718  162.0970 C.3     1  UNL1        0.0972
     11 C         144.9449  139.9763  163.8444 C.3     1  UNL1        0.0528
     12 C         143.6200  139.4252  163.4075 C.ar    1  UNL1        0.0689
     13 N         143.1236  139.6809  162.0154 N.ar    1  UNL1       -0.2477
     14 C         141.7986  139.1298  161.5785 C.ar    1  UNL1        0.0955
     15 C         140.9702  138.3230  162.5338 C.ar    1  UNL1        0.0135
     16 C         141.4666  138.0673  163.9260 C.ar    1  UNL1        0.0101
     17 C         142.7915  138.6184  164.3628 C.ar    1  UNL1        0.0817
     18 C         143.2880  138.3626  165.7550 C.1     1  UNL1        0.1016
     19 N         143.7844  138.1069  167.1472 N.1     1  UNL1       -0.1908
     20 C         137.8366  144.1226  164.0065 C.3     1  UNL1        0.0970
     21 C         138.9684  144.7777  164.7414 C.3     1  UNL1        0.1263
     22 N         140.3750  144.3012  164.5306 N.ar    1  UNL1       -0.2941
     23 C         141.1413  144.7390  163.3177 C.ar    1  UNL1        0.2610
     24 O         140.5010  145.6532  162.3156 O.2     1  UNL1       -0.2670
     25 C         142.5480  144.2626  163.1069 C.ar    1  UNL1        0.0608
     26 C         143.1883  143.3484  164.1090 C.ar    1  UNL1        0.0063
     27 C         142.4220  142.9106  165.3220 C.ar    1  UNL1        0.0161
     28 C         143.0624  141.9965  166.3241 C.ar    1  UNL1        0.0021
     29 C         142.2961  141.5588  167.5370 C.ar    1  UNL1        0.0104
     30 C         140.8895  142.0352  167.7478 C.ar    1  UNL1        0.0699
     31 C         140.2491  142.9493  166.7457 C.ar    1  UNL1        0.0275
     32 C         141.0154  143.3870  165.5328 C.ar    1  UNL1        0.0631
     33 C         140.1232  141.5974  168.9608 C.1     1  UNL1        0.1005
     34 N         139.3569  141.1597  170.1737 N.1     1  UNL1       -0.1908
@<TRIPOS>BOND
     1    11    12    1
     2    12    13   ar
     3    13    14   ar
     4    14    15   ar
     5    15    10    1
     6    10     8    1
     7     1     8    1
     8     1     2    1
     9     2     3    1
    10     3     4    1
    11     4    20    1
    12    20    21    1
    13    21    22    1
    14    22    23   ar
    15    23    24    2
    16    23    25   ar
    17    25    26   ar
    18    26    27   ar
    19    27    28   ar
    20    28    29   ar
    21    29    30   ar
    22    30    33    1
    23    33    34    3
    24    30    31   ar
    25    31    32   ar
    26     4     5    1
    27     5     6    1
    28     6     7    1
    29    15    16   ar
    30    16    17   ar
    31    17    18    1
    32    18    19    3
    33    17    12   ar
    34     6     1    1
    35    32    22   ar
    36    32    27   ar
    37     8     9    1
@<TRIPOS>MOLECULE
*****
 34 37 0 0 0
SMALL
GASTEIGER

@<TRIPOS>ATOM
      1 C         143.8946  140.1520  163.6468 C.3     1  UNL1        0.0900
      2 C         143.4066  141.5473  163.3916 C.3     1  UNL1        0.0359
      3 C         142.8273  142.3562  164.5142 C.3     1  UNL1        0.0737
      4 N         142.7360  141.7698  165.8918 N.3     1  UNL1       -0.2687
      5 C         143.2239  140.3745  166.1469 C.3     1  UNL1        0.1092
      6 C         143.8032  139.5656  165.0244 C.3     1  UNL1        0.1911
      7 F         144.2912  138.1704  165.2794 F       1  UNL1       -0.2343
      8 N         144.4739  139.3430  162.5243 N.3     1  UNL1       -0.2925
      9 H         144.5512  139.9670  161.7211 H       1  UNL1        0.1236
     10 C         143.7679  138.1086  162.0473 C.3     1  UNL1        0.0972
     11 C         137.7751  137.9956  161.7759 C.3     1  UNL1        0.0528
     12 C         139.2733  138.0239  161.8437 C.ar    1  UNL1        0.0689
     13 N         139.9794  137.4911  163.0551 N.ar    1  UNL1       -0.2477
     14 C         141.4776  137.5193  163.1230 C.ar    1  UNL1        0.0955
     15 C         142.2697  138.0803  161.9794 C.ar    1  UNL1        0.0135
     16 C         141.5636  138.6131  160.7680 C.ar    1  UNL1        0.0101
     17 C         140.0654  138.5849  160.7002 C.ar    1  UNL1        0.0817
     18 C         139.3593  139.1177  159.4887 C.1     1  UNL1        0.1016
     19 N         138.6532  139.6505  158.2773 N.1     1  UNL1       -0.1908
     20 C         142.1567  142.5787  167.0143 C.3     1  UNL1        0.0970
     21 C         140.6701  142.6387  167.2062 C.3     1  UNL1        0.1263
     22 N         139.7910  141.5941  166.5849 N.ar    1  UNL1       -0.2941
     23 C         139.5772  140.2828  167.2812 C.ar    1  UNL1        0.2610
     24 O         140.2425  140.0161  168.5989 O.2     1  UNL1       -0.2670
     25 C         138.6981  139.2383  166.6599 C.ar    1  UNL1        0.0608
     26 C         138.0328  139.5049  165.3422 C.ar    1  UNL1        0.0063
     27 C         138.2466  140.8162  164.6458 C.ar    1  UNL1        0.0161
     28 C         137.5813  141.0829  163.3282 C.ar    1  UNL1        0.0021
     29 C         137.7951  142.3941  162.6319 C.ar    1  UNL1        0.0104
     30 C         138.6742  143.4387  163.2532 C.ar    1  UNL1        0.0699
     31 C         139.3395  143.1720  164.5708 C.ar    1  UNL1        0.0275
     32 C         139.1257  141.8608  165.2671 C.ar    1  UNL1        0.0631
     33 C         138.8880  144.7500  162.5568 C.1     1  UNL1        0.1005
     34 N         139.1018  146.0612  161.8605 N.1     1  UNL1       -0.1908
@<TRIPOS>BOND
     1    11    12    1
     2    12    13   ar
     3    13    14   ar
     4    14    15   ar
     5    15    10    1
     6    10     8    1
     7     1     8    1
     8     1     2    1
     9     2     3    1
    10     3     4    1
    11     4    20    1
    12    20    21    1
    13    21    22    1
    14    22    23   ar
    15    23    24    2
    16    23    25   ar
    17    25    26   ar
    18    26    27   ar
    19    27    28   ar
    20    28    29   ar
    21    29    30   ar
    22    30    33    1
    23    33    34    3
    24    30    31   ar
    25    31    32   ar
    26     4     5    1
    27     5     6    1
    28     6     7    1
    29    15    16   ar
    30    16    17   ar
    31    17    18    1
    32    18    19    3
    33    17    12   ar
    34     6     1    1
    35    32    22   ar
    36    32    27   ar
    37     8     9    1
@<TRIPOS>MOLECULE
*****
 34 37 0 0 0
SMALL
GASTEIGER

@<TRIPOS>ATOM
      1 C         137.8587  142.8083  162.6967 C.3     1  UNL1        0.0900
      2 C         137.7881  142.1861  164.0598 C.3     1  UNL1        0.0359
      3 C         137.9616  140.7045  164.2178 C.3     1  UNL1        0.0737
      4 N         138.2057  139.8452  163.0127 N.3     1  UNL1       -0.2687
      5 C         138.2763  140.4675  161.6497 C.3     1  UNL1        0.1092
      6 C         138.1028  141.9490  161.4917 C.3     1  UNL1        0.1911
      7 F         138.1735  142.5712  160.1287 F       1  UNL1       -0.2343
      8 N         137.6853  144.2898  162.5386 N.3     1  UNL1       -0.2925
      9 H         137.2852  144.4423  161.6128 H       1  UNL1        0.1236
     10 C         138.8718  145.2003  162.6530 C.3     1  UNL1        0.0972
     11 C         144.3476  142.9000  163.5038 C.3     1  UNL1        0.0528
     12 C         142.9786  143.4751  163.2911 C.ar    1  UNL1        0.0689
     13 N         142.1590  143.9152  164.4677 N.ar    1  UNL1       -0.2477
     14 C         140.7900  144.4903  164.2550 C.ar    1  UNL1        0.0955
     15 C         140.2407  144.6252  162.8657 C.ar    1  UNL1        0.0135
     16 C         141.0604  144.1850  161.6892 C.ar    1  UNL1        0.0101
     17 C         142.4293  143.6099  161.9019 C.ar    1  UNL1        0.0817
     18 C         143.2490  143.1697  160.7252 C.1     1  UNL1        0.1016
     19 N         144.0686  142.7295  159.5486 N.1     1  UNL1       -0.1908
     20 C         138.3792  138.3637  163.1708 C.3     1  UNL1        0.0970
     21 C         139.2979  137.8246  164.2270 C.3     1  UNL1        0.1263
     22 N         140.6953  138.3561  164.3479 N.ar    1  UNL1       -0.2941
     23 C         141.6805  138.1349  163.2387 C.ar    1  UNL1        0.2610
     24 O         141.2682  137.3822  162.0084 O.2     1  UNL1       -0.2670
     25 C         143.0779  138.6664  163.3597 C.ar    1  UNL1        0.0608
     26 C         143.4902  139.4191  164.5899 C.ar    1  UNL1        0.0063
     27 C         142.5050  139.6403  165.6992 C.ar    1  UNL1        0.0161
     28 C         142.9173  140.3930  166.9294 C.ar    1  UNL1        0.0021
     29 C         141.9321  140.6142  168.0386 C.ar    1  UNL1        0.0104
     30 C         140.5347  140.0827  167.9177 C.ar    1  UNL1        0.0699
     31 C         140.1224  139.3300  166.6875 C.ar    1  UNL1        0.0275
     32 C         141.1076  139.1088  165.5782 C.ar    1  UNL1        0.0631
     33 C         139.5495  140.3040  169.0270 C.1     1  UNL1        0.1005
     34 N         138.5644  140.5252  170.1363 N.1     1  UNL1       -0.1908
@<TRIPOS>BOND
     1    11    12    1
     2    12    13   ar
     3    13    14   ar
     4    14    15   ar
     5    15    10    1
     6    10     8    1
     7     1     8    1
     8     1     2    1
     9     2     3    1
    10     3     4    1
    11     4    20    1
    12    20    21    1
    13    21    22    1
    14    22    23   ar
    15    23    24    2
    16    23    25   ar
    17    25    26   ar
    18    26    27   ar
    19    27    28   ar
    20    28    29   ar
    21    29    30   ar
    22    30    33    1
    23    33    34    3
    24    30    31   ar
    25    31    32   ar
    26     4     5    1
    27     5     6    1
    28     6     7    1
    29    15    16   ar
    30    16    17   ar
    31    17    18    1
    32    18    19    3
    33    17    12   ar
    34     6     1    1
    35    32    22   ar
    36    32    27   ar
    37     8     9    1
