@<TRIPOS>MOLECULE
*****
 26 28 0 0 0
SMALL
GASTEIGER

@<TRIPOS>ATOM
      1 C         145.0482  143.2640  165.4984 C.3     1  UNL1        0.0327
      2 C         143.5710  143.0133  165.5702 C.ar    1  UNL1       -0.0009
      3 C         142.8783  142.0950  166.5330 C.ar    1  UNL1        0.0727
      4 N         141.4064  142.1511  166.2496 N.ar    1  UNL1       -0.3135
      5 C         141.1894  143.1041  165.1118 C.ar    1  UNL1        0.1444
      6 N         139.9464  143.5555  164.4038 N.ar    1  UNL1       -0.2237
      7 C         140.0413  144.5397  163.2759 C.ar    1  UNL1        0.1366
      8 C         141.3791  145.0726  162.8560 C.ar    1  UNL1        0.0352
      9 C         142.6220  144.6212  163.5640 C.ar    1  UNL1        0.0619
     10 CL        143.9599  145.1541  163.1441 Cl      1  UNL1       -0.0821
     11 C         142.5272  143.6370  164.6919 C.ar    1  UNL1        0.0422
     12 C         138.7983  144.9911  162.5678 C.2     1  UNL1        0.2606
     13 N         137.4933  144.2991  162.8287 N.am    1  UNL1       -0.3241
     14 O         138.8604  146.1345  161.5990 O.2     1  UNL1       -0.2687
     15 H         137.4526  143.5487  163.4646 H       1  UNL1        0.1453
     16 H         136.6775  144.5954  162.3640 H       1  UNL1        0.1453
     17 C         140.3389  141.3882  166.9765 C.3     1  UNL1        0.0896
     18 C         139.2654  140.6800  166.2045 C.3     1  UNL1        0.0246
     19 C         140.3449  141.3334  168.4756 C.3     1  UNL1        0.0562
     20 C         140.4748  140.0140  169.1774 C.3     1  UNL1        0.0217
     21 C         140.4808  139.9593  170.6763 C.3     1  UNL1        0.0688
     22 N         140.3569  141.2239  171.4735 N.3     1  UNL1       -0.2952
     23 C         140.2270  142.5432  170.7718 C.3     1  UNL1        0.1043
     24 C         140.2210  142.5979  169.2728 C.3     1  UNL1        0.1784
     25 F         140.0911  143.9173  168.5709 F       1  UNL1       -0.2357
     26 H         141.1881  141.2838  172.0617 H       1  UNL1        0.1233
@<TRIPOS>BOND
     1     1     2    1
     2     2     3   ar
     3     3     4   ar
     4     4    17    1
     5    17    18    1
     6    17    19    1
     7    19    20    1
     8    20    21    1
     9    21    22    1
    10    22    23    1
    11    23    24    1
    12    24    25    1
    13     4     5   ar
    14     5     6   ar
    15     6     7   ar
    16     7    12    1
    17    12    13   am
    18    12    14    2
    19     7     8   ar
    20     8     9   ar
    21     9    10    1
    22     9    11   ar
    23    11     2   ar
    24    24    19    1
    25    11     5   ar
    26    22    26    1
    27    13    15    1
    28    13    16    1
@<TRIPOS>MOLECULE
*****
 26 28 0 0 0
SMALL
GASTEIGER

@<TRIPOS>ATOM
      1 C         138.8531  144.7158  165.1670 C.3     1  UNL1        0.0327
      2 C         139.4440  143.3545  165.3854 C.ar    1  UNL1       -0.0009
      3 C         140.3425  142.9547  166.5180 C.ar    1  UNL1        0.0727
      4 N         140.6940  141.5071  166.3420 N.ar    1  UNL1       -0.3135
      5 C         140.0128  141.0123  165.1007 C.ar    1  UNL1        0.1444
      6 N         139.9961  139.6695  164.4323 N.ar    1  UNL1       -0.2237
      7 C         139.2069  139.4685  163.1727 C.ar    1  UNL1        0.1366
      8 C         138.4343  140.6103  162.5814 C.ar    1  UNL1        0.0352
      9 C         138.4510  141.9530  163.2498 C.ar    1  UNL1        0.0619
     10 CL        137.6785  143.0947  162.6585 Cl      1  UNL1       -0.0821
     11 C         139.2402  142.1540  164.5094 C.ar    1  UNL1        0.0422
     12 C         139.1902  138.1257  162.5043 C.2     1  UNL1        0.2606
     13 N         137.9405  137.6372  161.8337 N.am    1  UNL1       -0.3241
     14 O         140.4231  137.2715  162.5065 O.2     1  UNL1       -0.2687
     15 H         137.1312  138.1979  161.8323 H       1  UNL1        0.1453
     16 H         137.9295  136.7560  161.3951 H       1  UNL1        0.1453
     17 C         141.5726  140.6967  167.2483 C.3     1  UNL1        0.0896
     18 C         142.7342  139.9350  166.6825 C.3     1  UNL1        0.0246
     19 C         141.2894  140.6480  168.7206 C.3     1  UNL1        0.0562
     20 C         142.3285  141.1078  169.6998 C.3     1  UNL1        0.0217
     21 C         142.0453  141.0591  171.1720 C.3     1  UNL1        0.0688
     22 N         140.7230  140.5506  171.6650 N.3     1  UNL1       -0.2952
     23 C         139.6839  140.0908  170.6858 C.3     1  UNL1        0.1043
     24 C         139.9671  140.1395  169.2137 C.3     1  UNL1        0.1784
     25 F         138.9280  139.6797  168.2344 F       1  UNL1       -0.2357
     26 H         140.3022  141.3038  172.2090 H       1  UNL1        0.1233
@<TRIPOS>BOND
     1     1     2    1
     2     2     3   ar
     3     3     4   ar
     4     4    17    1
     5    17    18    1
     6    17    19    1
     7    19    20    1
     8    20    21    1
     9    21    22    1
    10    22    23    1
    11    23    24    1
    12    24    25    1
    13     4     5   ar
    14     5     6   ar
    15     6     7   ar
    16     7    12    1
    17    12    13   am
    18    12    14    2
    19     7     8   ar
    20     8     9   ar
    21     9    10    1
    22     9    11   ar
    23    11     2   ar
    24    24    19    1
    25    11     5   ar
    26    22    26    1
    27    13    15    1
    28    13    16    1
@<TRIPOS>MOLECULE
*****
 26 28 0 0 0
SMALL
GASTEIGER

@<TRIPOS>ATOM
      1 C         138.8375  144.7799  164.9619 C.3     1  UNL1        0.0327
      2 C         139.9716  143.8378  165.2384 C.ar    1  UNL1       -0.0009
      3 C         140.0991  142.9377  166.4315 C.ar    1  UNL1        0.0727
      4 N         141.3836  142.1741  166.3008 N.ar    1  UNL1       -0.3135
      5 C         142.0498  142.6022  165.0269 C.ar    1  UNL1        0.1444
      6 N         143.3384  142.1886  164.3800 N.ar    1  UNL1       -0.2237
      7 C         143.7543  142.8033  163.0765 C.ar    1  UNL1        0.1366
      8 C         142.8816  143.8316  162.4199 C.ar    1  UNL1        0.0352
      9 C         141.5930  144.2452  163.0668 C.ar    1  UNL1        0.0619
     10 CL        140.7204  145.2734  162.4102 Cl      1  UNL1       -0.0821
     11 C         141.1772  143.6305  164.3703 C.ar    1  UNL1        0.0422
     12 C         145.0429  142.3897  162.4295 C.2     1  UNL1        0.2606
     13 N         145.2987  142.7203  160.9889 N.am    1  UNL1       -0.3241
     14 O         146.0755  141.6456  163.2231 O.2     1  UNL1       -0.2687
     15 H         144.6209  143.2087  160.4681 H       1  UNL1        0.1453
     16 H         146.1445  142.4489  160.5643 H       1  UNL1        0.1453
     17 C         141.9095  141.1603  167.2732 C.3     1  UNL1        0.0896
     18 C         142.3642  139.8173  166.7841 C.3     1  UNL1        0.0246
     19 C         141.9806  141.4895  168.7350 C.3     1  UNL1        0.0562
     20 C         142.9273  142.5469  169.2204 C.3     1  UNL1        0.0217
     21 C         142.9984  142.8761  170.6821 C.3     1  UNL1        0.0688
     22 N         142.1227  142.1480  171.6583 N.3     1  UNL1       -0.2952
     23 C         141.1760  141.0906  171.1729 C.3     1  UNL1        0.1043
     24 C         141.1050  140.7614  169.7113 C.3     1  UNL1        0.1784
     25 F         140.1582  139.7040  169.2258 F       1  UNL1       -0.2357
     26 H         141.5584  142.8540  172.1311 H       1  UNL1        0.1233
@<TRIPOS>BOND
     1     1     2    1
     2     2     3   ar
     3     3     4   ar
     4     4    17    1
     5    17    18    1
     6    17    19    1
     7    19    20    1
     8    20    21    1
     9    21    22    1
    10    22    23    1
    11    23    24    1
    12    24    25    1
    13     4     5   ar
    14     5     6   ar
    15     6     7   ar
    16     7    12    1
    17    12    13   am
    18    12    14    2
    19     7     8   ar
    20     8     9   ar
    21     9    10    1
    22     9    11   ar
    23    11     2   ar
    24    24    19    1
    25    11     5   ar
    26    22    26    1
    27    13    15    1
    28    13    16    1
@<TRIPOS>MOLECULE
*****
 26 28 0 0 0
SMALL
GASTEIGER

@<TRIPOS>ATOM
      1 C         138.5203  139.0928  166.0390 C.3     1  UNL1        0.0327
      2 C         139.8450  139.7962  166.0146 C.ar    1  UNL1       -0.0009
      3 C         140.7270  139.9736  164.8143 C.ar    1  UNL1        0.0727
      4 N         141.9473  140.7326  165.2441 N.ar    1  UNL1       -0.3135
      5 C         141.8195  141.0242  166.7099 C.ar    1  UNL1        0.1444
      6 N         142.7184  141.7420  167.6725 N.ar    1  UNL1       -0.2237
      7 C         142.3180  141.8810  169.1114 C.ar    1  UNL1        0.1366
      8 C         141.0187  141.3023  169.5876 C.ar    1  UNL1        0.0352
      9 C         140.1198  140.5845  168.6249 C.ar    1  UNL1        0.0619
     10 CL        138.8204  140.0057  169.1011 Cl      1  UNL1       -0.0821
     11 C         140.5202  140.4455  167.1861 C.ar    1  UNL1        0.0422
     12 C         143.2169  142.5989  170.0741 C.2     1  UNL1        0.2606
     13 N         142.6853  143.0512  171.4018 N.am    1  UNL1       -0.3241
     14 O         144.6474  142.8643  169.7091 O.2     1  UNL1       -0.2687
     15 H         141.7464  142.8770  171.6413 H       1  UNL1        0.1453
     16 H         143.2752  143.5223  172.0336 H       1  UNL1        0.1453
     17 C         143.0941  141.1302  164.3628 C.3     1  UNL1        0.0896
     18 C         144.2406  140.1862  164.1521 C.3     1  UNL1        0.0246
     19 C         143.0945  142.4719  163.6920 C.3     1  UNL1        0.0562
     20 C         142.3817  142.6573  162.3852 C.3     1  UNL1        0.0217
     21 C         142.3821  143.9990  161.7146 C.3     1  UNL1        0.0688
     22 N         143.0953  145.1553  162.3506 N.3     1  UNL1       -0.2952
     23 C         143.8081  144.9698  163.6573 C.3     1  UNL1        0.1043
     24 C         143.8077  143.6282  164.3280 C.3     1  UNL1        0.1784
     25 F         144.5205  143.4427  165.6347 F       1  UNL1       -0.2357
     26 H         142.3992  145.8866  162.4960 H       1  UNL1        0.1233
@<TRIPOS>BOND
     1     1     2    1
     2     2     3   ar
     3     3     4   ar
     4     4    17    1
     5    17    18    1
     6    17    19    1
     7    19    20    1
     8    20    21    1
     9    21    22    1
    10    22    23    1
    11    23    24    1
    12    24    25    1
    13     4     5   ar
    14     5     6   ar
    15     6     7   ar
    16     7    12    1
    17    12    13   am
    18    12    14    2
    19     7     8   ar
    20     8     9   ar
    21     9    10    1
    22     9    11   ar
    23    11     2   ar
    24    24    19    1
    25    11     5   ar
    26    22    26    1
    27    13    15    1
    28    13    16    1
@<TRIPOS>MOLECULE
*****
 26 28 0 0 0
SMALL
GASTEIGER

@<TRIPOS>ATOM
      1 C         143.4736  138.6711  165.7183 C.3     1  UNL1        0.0327
      2 C         142.7922  140.0066  165.7665 C.ar    1  UNL1       -0.0009
      3 C         142.5882  140.9347  164.6059 C.ar    1  UNL1        0.0727
      4 N         141.8652  142.1501  165.1060 N.ar    1  UNL1       -0.3135
      5 C         141.6223  141.9732  166.5756 C.ar    1  UNL1        0.1444
      6 N         140.9536  142.8472  167.5947 N.ar    1  UNL1       -0.2237
      7 C         140.8577  142.3964  169.0222 C.ar    1  UNL1        0.1366
      8 C         141.4307  141.0717  169.4304 C.ar    1  UNL1        0.0352
      9 C         142.0995  140.1976  168.4113 C.ar    1  UNL1        0.0619
     10 CL        142.6725  138.8729  168.8195 Cl      1  UNL1       -0.0821
     11 C         142.1953  140.6484  166.9838 C.ar    1  UNL1        0.0422
     12 C         140.1889  143.2705  170.0414 C.2     1  UNL1        0.2606
     13 N         139.7135  142.6829  171.3371 N.am    1  UNL1       -0.3241
     14 O         139.9955  144.7320  169.7650 O.2     1  UNL1       -0.2687
     15 H         139.8404  141.7236  171.5185 H       1  UNL1        0.1453
     16 H         139.2746  143.2565  172.0060 H       1  UNL1        0.1453
     17 C         141.4566  143.3345  164.2812 C.3     1  UNL1        0.0896
     18 C         142.3552  144.5321  164.1918 C.3     1  UNL1        0.0246
     19 C         140.1493  143.3213  163.5457 C.3     1  UNL1        0.0562
     20 C         139.9757  142.4455  162.3403 C.3     1  UNL1        0.0217
     21 C         138.6685  142.4323  161.6049 C.3     1  UNL1        0.0688
     22 N         137.5348  143.2948  162.0748 N.3     1  UNL1       -0.2952
     23 C         137.7084  144.1706  163.2802 C.3     1  UNL1        0.1043
     24 C         139.0156  144.1838  164.0156 C.3     1  UNL1        0.1784
     25 F         139.1893  145.0595  165.2210 F       1  UNL1       -0.2357
     26 H         136.7531  142.6707  162.2744 H       1  UNL1        0.1233
@<TRIPOS>BOND
     1     1     2    1
     2     2     3   ar
     3     3     4   ar
     4     4    17    1
     5    17    18    1
     6    17    19    1
     7    19    20    1
     8    20    21    1
     9    21    22    1
    10    22    23    1
    11    23    24    1
    12    24    25    1
    13     4     5   ar
    14     5     6   ar
    15     6     7   ar
    16     7    12    1
    17    12    13   am
    18    12    14    2
    19     7     8   ar
    20     8     9   ar
    21     9    10    1
    22     9    11   ar
    23    11     2   ar
    24    24    19    1
    25    11     5   ar
    26    22    26    1
    27    13    15    1
    28    13    16    1
@<TRIPOS>MOLECULE
*****
 26 28 0 0 0
SMALL
GASTEIGER

@<TRIPOS>ATOM
      1 C         140.8927  137.2728  164.6787 C.3     1  UNL1        0.0327
      2 C         140.9145  138.6874  165.1772 C.ar    1  UNL1       -0.0009
      3 C         141.8212  139.2339  166.2398 C.ar    1  UNL1        0.0727
      4 N         141.5005  140.6881  166.4199 N.ar    1  UNL1       -0.3135
      5 C         140.3956  141.0404  165.4685 C.ar    1  UNL1        0.1444
      6 N         139.6724  142.3273  165.2024 N.ar    1  UNL1       -0.2237
      7 C         138.5872  142.3777  164.1682 C.ar    1  UNL1        0.1366
      8 C         138.2251  141.1412  163.4001 C.ar    1  UNL1        0.0352
      9 C         138.9482  139.8543  163.6663 C.ar    1  UNL1        0.0619
     10 CL        138.5860  138.6178  162.8982 Cl      1  UNL1       -0.0821
     11 C         140.0334  139.8039  164.7005 C.ar    1  UNL1        0.0422
     12 C         137.8640  143.6647  163.9020 C.2     1  UNL1        0.2606
     13 N         137.5501  144.0709  162.4926 N.am    1  UNL1       -0.3241
     14 O         137.4548  144.5453  165.0452 O.2     1  UNL1       -0.2687
     15 H         137.8188  143.4929  161.7423 H       1  UNL1        0.1453
     16 H         137.0755  144.9156  162.3179 H       1  UNL1        0.1453
     17 C         142.1675  141.6255  167.3824 C.3     1  UNL1        0.0896
     18 C         143.3461  142.4410  166.9402 C.3     1  UNL1        0.0246
     19 C         141.6558  141.7474  168.7872 C.3     1  UNL1        0.0562
     20 C         142.2011  140.8566  169.8639 C.3     1  UNL1        0.0217
     21 C         141.6894  140.9786  171.2686 C.3     1  UNL1        0.0688
     22 N         140.6325  141.9912  171.5967 N.3     1  UNL1       -0.2952
     23 C         140.0872  142.8819  170.5200 C.3     1  UNL1        0.1043
     24 C         140.5989  142.7600  169.1153 C.3     1  UNL1        0.1784
     25 F         140.0537  143.6507  168.0384 F       1  UNL1       -0.2357
     26 H         141.0225  142.6018  172.3146 H       1  UNL1        0.1233
@<TRIPOS>BOND
     1     1     2    1
     2     2     3   ar
     3     3     4   ar
     4     4    17    1
     5    17    18    1
     6    17    19    1
     7    19    20    1
     8    20    21    1
     9    21    22    1
    10    22    23    1
    11    23    24    1
    12    24    25    1
    13     4     5   ar
    14     5     6   ar
    15     6     7   ar
    16     7    12    1
    17    12    13   am
    18    12    14    2
    19     7     8   ar
    20     8     9   ar
    21     9    10    1
    22     9    11   ar
    23    11     2   ar
    24    24    19    1
    25    11     5   ar
    26    22    26    1
    27    13    15    1
    28    13    16    1
@<TRIPOS>MOLECULE
*****
 26 28 0 0 0
SMALL
GASTEIGER

@<TRIPOS>ATOM
      1 C         144.8291  143.2141  165.7533 C.3     1  UNL1        0.0327
      2 C         143.4272  142.7584  165.4757 C.ar    1  UNL1       -0.0009
      3 C         142.8021  141.4840  165.9605 C.ar    1  UNL1        0.0727
      4 N         141.3929  141.4351  165.4489 N.ar    1  UNL1       -0.3135
      5 C         141.1471  142.6793  164.6479 C.ar    1  UNL1        0.1444
      6 N         139.9408  143.1731  163.9056 N.ar    1  UNL1       -0.2237
      7 C         139.9919  144.4848  163.1798 C.ar    1  UNL1        0.1366
      8 C         141.2492  145.3027  163.1964 C.ar    1  UNL1        0.0352
      9 C         142.4555  144.8088  163.9386 C.ar    1  UNL1        0.0619
     10 CL        143.7128  145.6267  163.9552 Cl      1  UNL1       -0.0821
     11 C         142.4044  143.4971  164.6644 C.ar    1  UNL1        0.0422
     12 C         138.7856  144.9788  162.4375 C.2     1  UNL1        0.2606
     13 N         137.4552  144.3175  162.6440 N.am    1  UNL1       -0.3241
     14 O         138.9098  146.1338  161.4886 O.2     1  UNL1       -0.2687
     15 H         137.3736  143.5594  163.2668 H       1  UNL1        0.1453
     16 H         136.6635  144.6417  162.1568 H       1  UNL1        0.1453
     17 C         140.4031  140.3352  165.6951 C.3     1  UNL1        0.0896
     18 C         139.7137  140.2299  167.0230 C.3     1  UNL1        0.0246
     19 C         140.1029  139.3403  164.6132 C.3     1  UNL1        0.0562
     20 C         141.1217  138.3030  164.2445 C.3     1  UNL1        0.0217
     21 C         140.8214  137.3083  163.1627 C.3     1  UNL1        0.0688
     22 N         139.5024  137.3509  162.4496 N.3     1  UNL1       -0.2952
     23 C         138.4836  138.3882  162.8184 C.3     1  UNL1        0.1043
     24 C         138.7839  139.3829  163.9002 C.3     1  UNL1        0.1784
     25 F         137.7652  140.4203  164.2690 F       1  UNL1       -0.2357
     26 H         139.0617  136.4419  162.5912 H       1  UNL1        0.1233
@<TRIPOS>BOND
     1     1     2    1
     2     2     3   ar
     3     3     4   ar
     4     4    17    1
     5    17    18    1
     6    17    19    1
     7    19    20    1
     8    20    21    1
     9    21    22    1
    10    22    23    1
    11    23    24    1
    12    24    25    1
    13     4     5   ar
    14     5     6   ar
    15     6     7   ar
    16     7    12    1
    17    12    13   am
    18    12    14    2
    19     7     8   ar
    20     8     9   ar
    21     9    10    1
    22     9    11   ar
    23    11     2   ar
    24    24    19    1
    25    11     5   ar
    26    22    26    1
    27    13    15    1
    28    13    16    1
@<TRIPOS>MOLECULE
*****
 26 28 0 0 0
SMALL
GASTEIGER

@<TRIPOS>ATOM
      1 C         138.7837  138.9285  165.7802 C.3     1  UNL1        0.0327
      2 C         140.0968  139.6518  165.8296 C.ar    1  UNL1       -0.0009
      3 C         141.0435  139.8399  164.6814 C.ar    1  UNL1        0.0727
      4 N         142.2256  140.6185  165.1780 N.ar    1  UNL1       -0.3135
      5 C         142.0094  140.9115  166.6332 C.ar    1  UNL1        0.1444
      6 N         142.8406  141.6451  167.6435 N.ar    1  UNL1       -0.2237
      7 C         142.3562  141.7813  169.0566 C.ar    1  UNL1        0.1366
      8 C         141.0405  141.1839  169.4592 C.ar    1  UNL1        0.0352
      9 C         140.2093  140.4503  168.4489 C.ar    1  UNL1        0.0619
     10 CL        138.8936  139.8529  168.8515 Cl      1  UNL1       -0.0821
     11 C         140.6938  140.3141  167.0358 C.ar    1  UNL1        0.0422
     12 C         143.1874  142.5150  170.0670 C.2     1  UNL1        0.2606
     13 N         142.5822  142.9339  171.3740 N.am    1  UNL1       -0.3241
     14 O         144.6236  142.8296  169.7704 O.2     1  UNL1       -0.2687
     15 H         141.6395  142.7273  171.5687 H       1  UNL1        0.1453
     16 H         143.1277  143.4154  172.0372 H       1  UNL1        0.1453
     17 C         143.4150  141.0315  164.3627 C.3     1  UNL1        0.0896
     18 C         144.5999  140.1188  164.2490 C.3     1  UNL1        0.0246
     19 C         143.4195  142.3573  163.6611 C.3     1  UNL1        0.0562
     20 C         143.7579  143.6062  164.4198 C.3     1  UNL1        0.0217
     21 C         143.7624  144.9319  163.7181 C.3     1  UNL1        0.0688
     22 N         143.4286  145.0088  162.2577 N.3     1  UNL1       -0.2952
     23 C         143.0902  143.7598  161.4990 C.3     1  UNL1        0.1043
     24 C         143.0857  142.4341  162.2007 C.3     1  UNL1        0.1784
     25 F         142.7474  141.1851  161.4420 F       1  UNL1       -0.2357
     26 H         144.2348  145.4263  161.7930 H       1  UNL1        0.1233
@<TRIPOS>BOND
     1     1     2    1
     2     2     3   ar
     3     3     4   ar
     4     4    17    1
     5    17    18    1
     6    17    19    1
     7    19    20    1
     8    20    21    1
     9    21    22    1
    10    22    23    1
    11    23    24    1
    12    24    25    1
    13     4     5   ar
    14     5     6   ar
    15     6     7   ar
    16     7    12    1
    17    12    13   am
    18    12    14    2
    19     7     8   ar
    20     8     9   ar
    21     9    10    1
    22     9    11   ar
    23    11     2   ar
    24    24    19    1
    25    11     5   ar
    26    22    26    1
    27    13    15    1
    28    13    16    1
@<TRIPOS>MOLECULE
*****
 26 28 0 0 0
SMALL
GASTEIGER

@<TRIPOS>ATOM
      1 C         137.7019  138.2086  167.0966 C.3     1  UNL1        0.0327
      2 C         138.7186  139.2748  166.8143 C.ar    1  UNL1       -0.0009
      3 C         139.3617  139.5508  165.4876 C.ar    1  UNL1        0.0727
      4 N         140.3112  140.6987  165.6626 N.ar    1  UNL1       -0.3135
      5 C         140.2550  141.1322  167.0975 C.ar    1  UNL1        0.1444
      6 N         140.9729  142.2145  167.8479 N.ar    1  UNL1       -0.2237
      7 C         140.7065  142.4168  169.3101 C.ar    1  UNL1        0.1366
      8 C         139.7222  141.5367  170.0219 C.ar    1  UNL1        0.0352
      9 C         139.0043  140.4544  169.2715 C.ar    1  UNL1        0.0619
     10 CL        138.0200  139.5743  169.9833 Cl      1  UNL1       -0.0821
     11 C         139.2707  140.2521  167.8093 C.ar    1  UNL1        0.0422
     12 C         141.4245  143.4991  170.0606 C.2     1  UNL1        0.2606
     13 N         142.8555  143.3073  170.4673 N.am    1  UNL1       -0.3241
     14 O         140.7114  144.7732  170.4043 O.2     1  UNL1       -0.2687
     15 H         143.3235  142.4711  170.2417 H       1  UNL1        0.1453
     16 H         143.3267  144.0177  170.9598 H       1  UNL1        0.1453
     17 C         141.1668  141.3065  164.5909 C.3     1  UNL1        0.0896
     18 C         140.7816  142.6206  163.9788 C.3     1  UNL1        0.0246
     19 C         142.4077  140.6002  164.1312 C.3     1  UNL1        0.0562
     20 C         142.3212  139.5502  163.0635 C.3     1  UNL1        0.0217
     21 C         143.5621  138.8439  162.6039 C.3     1  UNL1        0.0688
     22 N         144.8895  139.1875  163.2120 N.3     1  UNL1       -0.2952
     23 C         144.9761  140.2375  164.2797 C.3     1  UNL1        0.1043
     24 C         143.7352  140.9438  164.7393 C.3     1  UNL1        0.1784
     25 F         143.8217  141.9938  165.8071 F       1  UNL1       -0.2357
     26 H         145.4928  139.4935  162.4485 H       1  UNL1        0.1233
@<TRIPOS>BOND
     1     1     2    1
     2     2     3   ar
     3     3     4   ar
     4     4    17    1
     5    17    18    1
     6    17    19    1
     7    19    20    1
     8    20    21    1
     9    21    22    1
    10    22    23    1
    11    23    24    1
    12    24    25    1
    13     4     5   ar
    14     5     6   ar
    15     6     7   ar
    16     7    12    1
    17    12    13   am
    18    12    14    2
    19     7     8   ar
    20     8     9   ar
    21     9    10    1
    22     9    11   ar
    23    11     2   ar
    24    24    19    1
    25    11     5   ar
    26    22    26    1
    27    13    15    1
    28    13    16    1
