@<TRIPOS>MOLECULE
*****
 35 39 0 0 0
SMALL
GASTEIGER

@<TRIPOS>ATOM
      1 C         139.9682  142.4154  160.8486 C.ar    1  UNL1        0.1233
      2 C         139.9733  142.1784  162.3298 C.ar    1  UNL1        0.1181
      3 N         138.6227  142.5536  162.8639 N.ar    1  UNL1       -0.2208
      4 N         137.7829  143.0226  161.7128 N.ar    1  UNL1       -0.0633
      5 N         138.6145  142.9371  160.4673 N.ar    1  UNL1       -0.1287
      6 C         143.1444  140.7325  159.1665 C.ar    1  UNL1        0.1547
      7 C         141.9973  140.9747  160.1021 C.ar    1  UNL1        0.0400
      8 C         141.1154  142.1733  159.9130 C.ar    1  UNL1        0.0241
      9 C         141.3808  143.1297  158.7884 C.ar    1  UNL1        0.0033
     10 C         142.5280  142.8875  157.8529 C.ar    1  UNL1        0.0207
     11 C         143.4098  141.6889  158.0419 C.ar    1  UNL1        0.0994
     12 N         144.5570  141.4468  157.1063 N.ar    1  UNL1       -0.2839
     13 C         144.6010  140.4219  156.0120 C.ar    1  UNL1        0.1826
     14 N         145.9328  140.5287  155.3301 N.ar    1  UNL1       -0.2280
     15 C         146.7119  141.6197  156.0031 C.ar    1  UNL1        0.0786
     16 C         148.0979  142.0650  155.6417 C.3     1  UNL1        0.0538
     17 C         145.8616  142.1871  157.1008 C.ar    1  UNL1        0.0963
     18 C         144.0227  138.7989  160.6632 C.3     1  UNL1        0.2525
     19 O         144.0263  139.5339  159.3556 O.3     1  UNL1       -0.4700
     20 C         138.1882  142.4739  164.2973 C.3     1  UNL1        0.2141
     21 C         139.1534  142.8151  165.3937 C.2     1  UNL1        0.2542
     22 O         139.4689  144.2503  165.6954 O.2     1  UNL1       -0.2724
     23 N         139.8030  141.7214  166.1884 N.am    1  UNL1       -0.2587
     24 C         139.4874  140.2862  165.8866 C.ar    1  UNL1        0.0538
     25 C         138.3538  139.6032  166.5926 C.ar    1  UNL1        0.0149
     26 C         138.0382  138.1681  166.2909 C.ar    1  UNL1        0.0013
     27 C         138.8562  137.4162  165.2832 C.ar    1  UNL1        0.0001
     28 C         139.9898  138.0992  164.5773 C.ar    1  UNL1        0.0013
     29 C         140.3054  139.5343  164.8790 C.ar    1  UNL1        0.0149
     30 C         140.7682  142.0625  167.2847 C.3     1  UNL1        0.0798
     31 C         142.2435  141.9140  167.0582 C.3     1  UNL1        0.0202
     32 C         143.2087  142.2552  168.1546 C.3     1  UNL1        0.0017
     33 C         142.6985  142.7449  169.4775 C.3     1  UNL1        0.0001
     34 C         141.2232  142.8934  169.7040 C.3     1  UNL1        0.0017
     35 C         140.2581  142.5522  168.6076 C.3     1  UNL1        0.0202
@<TRIPOS>BOND
     1    18    19    1
     2    19     6    1
     3     6     7   ar
     4     7     8   ar
     5     8     1    1
     6     1     2   ar
     7     2     3   ar
     8     3    20    1
     9    20    21    1
    10    21    22    2
    11    21    23   am
    12    23    24    1
    13    24    25   ar
    14    25    26   ar
    15    26    27   ar
    16    27    28   ar
    17    28    29   ar
    18    23    30    1
    19    30    31    1
    20    31    32    1
    21    32    33    1
    22    33    34    1
    23    34    35    1
    24     3     4   ar
    25     4     5   ar
    26     8     9   ar
    27     9    10   ar
    28    10    11   ar
    29    11    12    1
    30    12    13   ar
    31    13    14   ar
    32    14    15   ar
    33    15    16    1
    34    15    17   ar
    35    11     6   ar
    36    17    12   ar
    37     5     1   ar
    38    29    24   ar
    39    35    30    1
@<TRIPOS>MOLECULE
*****
 35 39 0 0 0
SMALL
GASTEIGER

@<TRIPOS>ATOM
      1 C         139.9353  142.4186  160.8203 C.ar    1  UNL1        0.1233
      2 C         139.9556  142.1668  162.2989 C.ar    1  UNL1        0.1181
      3 N         138.6143  142.5473  162.8523 N.ar    1  UNL1       -0.2208
      4 N         137.7651  143.0343  161.7157 N.ar    1  UNL1       -0.0633
      5 N         138.5816  142.9548  160.4599 N.ar    1  UNL1       -0.1287
      6 C         143.1635  140.8087  159.1657 C.ar    1  UNL1        0.1547
      7 C         142.0291  141.0506  160.1169 C.ar    1  UNL1        0.0400
      8 C         141.0697  142.1768  159.8691 C.ar    1  UNL1        0.0241
      9 C         141.2447  143.0610  158.6702 C.ar    1  UNL1        0.0033
     10 C         142.3790  142.8191  157.7191 C.ar    1  UNL1        0.0207
     11 C         143.3384  141.6930  157.9668 C.ar    1  UNL1        0.0994
     12 N         144.4728  141.4511  157.0156 N.ar    1  UNL1       -0.2839
     13 C         144.4678  140.4908  155.8633 C.ar    1  UNL1        0.1826
     14 N         145.8032  140.5734  155.1853 N.ar    1  UNL1       -0.2280
     15 C         146.6337  141.5847  155.9185 C.ar    1  UNL1        0.0786
     16 C         148.0395  141.9835  155.5800 C.3     1  UNL1        0.0538
     17 C         145.8114  142.1272  157.0497 C.ar    1  UNL1        0.0963
     18 C         143.9740  138.8257  160.6356 C.3     1  UNL1        0.2525
     19 O         144.1228  139.6826  159.4135 O.3     1  UNL1       -0.4700
     20 C         138.1957  142.4567  164.2899 C.3     1  UNL1        0.2141
     21 C         139.1691  142.8019  165.3777 C.2     1  UNL1        0.2542
     22 O         139.5104  144.2368  165.6511 O.2     1  UNL1       -0.2724
     23 N         139.8013  141.7124  166.1920 N.am    1  UNL1       -0.2587
     24 C         139.4599  140.2775  165.9186 C.ar    1  UNL1        0.0538
     25 C         140.2635  139.4916  164.9253 C.ar    1  UNL1        0.0149
     26 C         139.9222  138.0568  164.6518 C.ar    1  UNL1        0.0013
     27 C         138.7774  137.4079  165.3716 C.ar    1  UNL1        0.0001
     28 C         137.9738  138.1937  166.3648 C.ar    1  UNL1        0.0013
     29 C         138.3151  139.6285  166.6383 C.ar    1  UNL1        0.0149
     30 C         140.7747  142.0576  167.2798 C.3     1  UNL1        0.0798
     31 C         140.2735  142.5263  168.6137 C.3     1  UNL1        0.0202
     32 C         141.2469  142.8715  169.7015 C.3     1  UNL1        0.0017
     33 C         142.7215  142.7480  169.4554 C.3     1  UNL1        0.0001
     34 C         143.2226  142.2793  168.1215 C.3     1  UNL1        0.0017
     35 C         142.2492  141.9341  167.0338 C.3     1  UNL1        0.0202
@<TRIPOS>BOND
     1    18    19    1
     2    19     6    1
     3     6     7   ar
     4     7     8   ar
     5     8     1    1
     6     1     2   ar
     7     2     3   ar
     8     3    20    1
     9    20    21    1
    10    21    22    2
    11    21    23   am
    12    23    24    1
    13    24    25   ar
    14    25    26   ar
    15    26    27   ar
    16    27    28   ar
    17    28    29   ar
    18    23    30    1
    19    30    31    1
    20    31    32    1
    21    32    33    1
    22    33    34    1
    23    34    35    1
    24     3     4   ar
    25     4     5   ar
    26     8     9   ar
    27     9    10   ar
    28    10    11   ar
    29    11    12    1
    30    12    13   ar
    31    13    14   ar
    32    14    15   ar
    33    15    16    1
    34    15    17   ar
    35    11     6   ar
    36    17    12   ar
    37     5     1   ar
    38    29    24   ar
    39    35    30    1
@<TRIPOS>MOLECULE
*****
 35 39 0 0 0
SMALL
GASTEIGER

@<TRIPOS>ATOM
      1 C         140.0702  138.5288  162.4740 C.ar    1  UNL1        0.1233
      2 C         139.7999  139.8117  163.2029 C.ar    1  UNL1        0.1181
      3 N         139.0601  139.4806  164.4650 N.ar    1  UNL1       -0.2208
      4 N         138.8732  137.9931  164.5162 N.ar    1  UNL1       -0.0633
      5 N         139.4975  137.4049  163.2857 N.ar    1  UNL1       -0.1287
      6 C         140.7592  138.4563  158.5663 C.ar    1  UNL1        0.1547
      7 C         140.0421  138.5915  159.8768 C.ar    1  UNL1        0.0400
      8 C         140.7873  138.3936  161.1634 C.ar    1  UNL1        0.0241
      9 C         142.2496  138.0605  161.1395 C.ar    1  UNL1        0.0033
     10 C         142.9667  137.9252  159.8290 C.ar    1  UNL1        0.0207
     11 C         142.2215  138.1232  158.5424 C.ar    1  UNL1        0.0994
     12 N         142.9386  137.9879  157.2318 N.ar    1  UNL1       -0.2839
     13 C         143.2119  136.7048  156.5046 C.ar    1  UNL1        0.1826
     14 N         143.9505  137.0360  155.2418 N.ar    1  UNL1       -0.2280
     15 C         144.1338  138.5238  155.1885 C.ar    1  UNL1        0.0786
     16 C         144.8217  139.2889  154.0971 C.3     1  UNL1        0.0538
     17 C         143.5084  139.1121  156.4185 C.ar    1  UNL1        0.0963
     18 C         139.7482  140.0406  156.7724 C.3     1  UNL1        0.2525
     19 O         140.0139  138.6542  157.2796 O.3     1  UNL1       -0.4700
     20 C         138.5898  140.4643  165.4952 C.3     1  UNL1        0.2141
     21 C         139.4529  140.7789  166.6810 C.2     1  UNL1        0.2542
     22 O         139.5148  139.8255  167.8375 O.2     1  UNL1       -0.2724
     23 N         140.2540  142.0466  166.7104 N.am    1  UNL1       -0.2587
     24 C         140.1920  142.9998  165.5538 C.ar    1  UNL1        0.0538
     25 C         141.2542  142.9647  164.4952 C.ar    1  UNL1        0.0149
     26 C         141.1922  143.9179  163.3387 C.ar    1  UNL1        0.0013
     27 C         140.0682  144.9063  163.2408 C.ar    1  UNL1        0.0001
     28 C         139.0061  144.9414  164.2994 C.ar    1  UNL1        0.0013
     29 C         139.0680  143.9882  165.4559 C.ar    1  UNL1        0.0149
     30 C         141.1171  142.3611  167.8962 C.3     1  UNL1        0.0798
     31 C         142.5429  141.8964  167.9303 C.3     1  UNL1        0.0202
     32 C         143.4060  142.2110  169.1161 C.3     1  UNL1        0.0017
     33 C         142.8433  142.9902  170.2677 C.3     1  UNL1        0.0001
     34 C         141.4175  143.4549  170.2336 C.3     1  UNL1        0.0017
     35 C         140.5544  143.1404  169.0478 C.3     1  UNL1        0.0202
@<TRIPOS>BOND
     1    18    19    1
     2    19     6    1
     3     6     7   ar
     4     7     8   ar
     5     8     1    1
     6     1     2   ar
     7     2     3   ar
     8     3    20    1
     9    20    21    1
    10    21    22    2
    11    21    23   am
    12    23    24    1
    13    24    25   ar
    14    25    26   ar
    15    26    27   ar
    16    27    28   ar
    17    28    29   ar
    18    23    30    1
    19    30    31    1
    20    31    32    1
    21    32    33    1
    22    33    34    1
    23    34    35    1
    24     3     4   ar
    25     4     5   ar
    26     8     9   ar
    27     9    10   ar
    28    10    11   ar
    29    11    12    1
    30    12    13   ar
    31    13    14   ar
    32    14    15   ar
    33    15    16    1
    34    15    17   ar
    35    11     6   ar
    36    17    12   ar
    37     5     1   ar
    38    29    24   ar
    39    35    30    1
@<TRIPOS>MOLECULE
*****
 35 39 0 0 0
SMALL
GASTEIGER

@<TRIPOS>ATOM
      1 C         143.6579  140.8368  161.6615 C.ar    1  UNL1        0.1233
      2 C         142.6535  141.5644  162.5052 C.ar    1  UNL1        0.1181
      3 N         143.4018  142.4582  163.4492 N.ar    1  UNL1       -0.2208
      4 N         144.8687  142.2830  163.1890 N.ar    1  UNL1       -0.0633
      5 N         145.0269  141.2809  162.0841 N.ar    1  UNL1       -0.1287
      6 C         143.0317  139.2705  158.0691 C.ar    1  UNL1        0.1547
      7 C         143.3419  140.2672  159.1464 C.ar    1  UNL1        0.0400
      8 C         143.3476  139.8401  160.5842 C.ar    1  UNL1        0.0241
      9 C         143.0432  138.4163  160.9449 C.ar    1  UNL1        0.0033
     10 C         142.7330  137.4196  159.8677 C.ar    1  UNL1        0.0207
     11 C         142.7273  137.8468  158.4298 C.ar    1  UNL1        0.0994
     12 N         142.4171  136.8500  157.3526 N.ar    1  UNL1       -0.2839
     13 C         141.2048  136.8551  156.4692 C.ar    1  UNL1        0.1826
     14 N         141.3032  135.6815  155.5403 N.ar    1  UNL1       -0.2280
     15 C         142.5763  134.9510  155.8496 C.ar    1  UNL1        0.0786
     16 C         143.0737  133.7152  155.1600 C.3     1  UNL1        0.0538
     17 C         143.2647  135.6732  156.9697 C.ar    1  UNL1        0.0963
     18 C         144.2656  139.5492  155.7998 C.3     1  UNL1        0.2525
     19 O         143.0260  139.6977  156.6313 O.3     1  UNL1       -0.4700
     20 C         142.7906  143.3676  164.4737 C.3     1  UNL1        0.2141
     21 C         142.3821  142.8240  165.8107 C.2     1  UNL1        0.2542
     22 O         143.4255  142.4953  166.8372 O.2     1  UNL1       -0.2724
     23 N         140.9306  142.6090  166.1213 N.am    1  UNL1       -0.2587
     24 C         139.8873  142.9377  165.0947 C.ar    1  UNL1        0.0538
     25 C         139.4051  141.8775  164.1495 C.ar    1  UNL1        0.0149
     26 C         138.3619  142.2061  163.1229 C.ar    1  UNL1        0.0013
     27 C         137.8010  143.5949  163.0417 C.ar    1  UNL1        0.0001
     28 C         138.2832  144.6550  163.9869 C.ar    1  UNL1        0.0013
     29 C         139.3264  144.3264  165.0134 C.ar    1  UNL1        0.0149
     30 C         140.5221  142.0654  167.4583 C.3     1  UNL1        0.0798
     31 C         140.1570  140.6173  167.5994 C.3     1  UNL1        0.0202
     32 C         139.7485  140.0737  168.9364 C.3     1  UNL1        0.0017
     33 C         139.7051  140.9781  170.1323 C.3     1  UNL1        0.0001
     34 C         140.0702  142.4262  169.9912 C.3     1  UNL1        0.0017
     35 C         140.4787  142.9698  168.6542 C.3     1  UNL1        0.0202
@<TRIPOS>BOND
     1    18    19    1
     2    19     6    1
     3     6     7   ar
     4     7     8   ar
     5     8     1    1
     6     1     2   ar
     7     2     3   ar
     8     3    20    1
     9    20    21    1
    10    21    22    2
    11    21    23   am
    12    23    24    1
    13    24    25   ar
    14    25    26   ar
    15    26    27   ar
    16    27    28   ar
    17    28    29   ar
    18    23    30    1
    19    30    31    1
    20    31    32    1
    21    32    33    1
    22    33    34    1
    23    34    35    1
    24     3     4   ar
    25     4     5   ar
    26     8     9   ar
    27     9    10   ar
    28    10    11   ar
    29    11    12    1
    30    12    13   ar
    31    13    14   ar
    32    14    15   ar
    33    15    16    1
    34    15    17   ar
    35    11     6   ar
    36    17    12   ar
    37     5     1   ar
    38    29    24   ar
    39    35    30    1
@<TRIPOS>MOLECULE
*****
 35 39 0 0 0
SMALL
GASTEIGER

@<TRIPOS>ATOM
      1 C         141.2321  138.9039  160.9317 C.ar    1  UNL1        0.1233
      2 C         141.9695  140.0849  161.4898 C.ar    1  UNL1        0.1181
      3 N         141.5739  140.2409  162.9282 N.ar    1  UNL1       -0.2208
      4 N         140.5919  139.1562  163.2591 N.ar    1  UNL1       -0.0633
      5 N         140.3808  138.3299  162.0252 N.ar    1  UNL1       -0.1287
      6 C         140.2120  137.8611  157.2409 C.ar    1  UNL1        0.1547
      7 C         140.1151  138.3775  158.6458 C.ar    1  UNL1        0.0400
      8 C         141.3291  138.3874  159.5267 C.ar    1  UNL1        0.0241
      9 C         142.6401  137.8808  159.0026 C.ar    1  UNL1        0.0033
     10 C         142.7370  137.3644  157.5977 C.ar    1  UNL1        0.0207
     11 C         141.5229  137.3546  156.7168 C.ar    1  UNL1        0.0994
     12 N         141.6199  136.8381  155.3118 N.ar    1  UNL1       -0.2839
     13 C         142.0535  137.6255  154.1110 C.ar    1  UNL1        0.1826
     14 N         142.0019  136.7176  152.9181 N.ar    1  UNL1       -0.2280
     15 C         141.5363  135.3690  153.3816 C.ar    1  UNL1        0.0786
     16 C         141.3412  134.1586  152.5175 C.3     1  UNL1        0.0538
     17 C         141.3003  135.4436  154.8611 C.ar    1  UNL1        0.0963
     18 C         138.7396  138.9962  155.4260 C.3     1  UNL1        0.2525
     19 O         138.9979  137.8513  156.3600 O.3     1  UNL1       -0.4700
     20 C         142.0725  141.2962  163.8704 C.3     1  UNL1        0.2141
     21 C         141.7837  141.1882  165.3383 C.2     1  UNL1        0.2542
     22 O         142.7172  140.4269  166.2323 O.2     1  UNL1       -0.2724
     23 N         140.5616  141.8414  165.9123 N.am    1  UNL1       -0.2587
     24 C         139.6282  142.6027  165.0183 C.ar    1  UNL1        0.0538
     25 C         138.4589  141.9062  164.3877 C.ar    1  UNL1        0.0149
     26 C         137.5255  142.6674  163.4937 C.ar    1  UNL1        0.0013
     27 C         137.7614  144.1251  163.2303 C.ar    1  UNL1        0.0001
     28 C         138.9306  144.8216  163.8608 C.ar    1  UNL1        0.0013
     29 C         139.8640  144.0603  164.7549 C.ar    1  UNL1        0.0149
     30 C         140.2728  141.7334  167.3803 C.3     1  UNL1        0.0798
     31 C         140.5783  142.8851  168.2915 C.3     1  UNL1        0.0202
     32 C         140.2895  142.7771  169.7594 C.3     1  UNL1        0.0017
     33 C         139.6952  141.5174  170.3162 C.3     1  UNL1        0.0001
     34 C         139.3896  140.3657  169.4051 C.3     1  UNL1        0.0017
     35 C         139.6784  140.4737  167.9371 C.3     1  UNL1        0.0202
@<TRIPOS>BOND
     1    18    19    1
     2    19     6    1
     3     6     7   ar
     4     7     8   ar
     5     8     1    1
     6     1     2   ar
     7     2     3   ar
     8     3    20    1
     9    20    21    1
    10    21    22    2
    11    21    23   am
    12    23    24    1
    13    24    25   ar
    14    25    26   ar
    15    26    27   ar
    16    27    28   ar
    17    28    29   ar
    18    23    30    1
    19    30    31    1
    20    31    32    1
    21    32    33    1
    22    33    34    1
    23    34    35    1
    24     3     4   ar
    25     4     5   ar
    26     8     9   ar
    27     9    10   ar
    28    10    11   ar
    29    11    12    1
    30    12    13   ar
    31    13    14   ar
    32    14    15   ar
    33    15    16    1
    34    15    17   ar
    35    11     6   ar
    36    17    12   ar
    37     5     1   ar
    38    29    24   ar
    39    35    30    1
@<TRIPOS>MOLECULE
*****
 35 39 0 0 0
SMALL
GASTEIGER

@<TRIPOS>ATOM
      1 C         142.8341  140.0682  161.4076 C.ar    1  UNL1        0.1233
      2 C         141.8042  140.7743  162.2386 C.ar    1  UNL1        0.1181
      3 N         141.4561  139.8876  163.3973 N.ar    1  UNL1       -0.2208
      4 N         142.2709  138.6334  163.2823 N.ar    1  UNL1       -0.0633
      5 N         143.1225  138.7451  162.0526 N.ar    1  UNL1       -0.1287
      6 C         144.2113  140.2349  157.6893 C.ar    1  UNL1        0.1547
      7 C         143.5805  139.7100  158.9449 C.ar    1  UNL1        0.0400
      8 C         143.4649  140.5931  160.1519 C.ar    1  UNL1        0.0241
      9 C         143.9799  142.0011  160.1032 C.ar    1  UNL1        0.0033
     10 C         144.6106  142.5259  158.8475 C.ar    1  UNL1        0.0207
     11 C         144.7263  141.6428  157.6406 C.ar    1  UNL1        0.0994
     12 N         145.3571  142.1677  156.3849 N.ar    1  UNL1       -0.2839
     13 C         144.6333  142.7932  155.2295 C.ar    1  UNL1        0.1826
     14 N         145.6512  143.1713  154.1947 N.ar    1  UNL1       -0.2280
     15 C         147.0042  142.7795  154.7106 C.ar    1  UNL1        0.0786
     16 C         148.3097  142.9738  153.9979 C.3     1  UNL1        0.0538
     17 C         146.8224  142.1592  156.0641 C.ar    1  UNL1        0.0963
     18 C         143.2153  139.3073  155.4762 C.3     1  UNL1        0.2525
     19 O         144.3269  139.3518  156.4823 O.3     1  UNL1       -0.4700
     20 C         140.4669  140.2001  164.4808 C.3     1  UNL1        0.2141
     21 C         140.9482  140.5501  165.8576 C.2     1  UNL1        0.2542
     22 O         141.3100  139.4620  166.8248 O.2     1  UNL1       -0.2724
     23 N         141.0678  141.9880  166.2674 N.am    1  UNL1       -0.2587
     24 C         140.7060  143.0760  165.3002 C.ar    1  UNL1        0.0538
     25 C         139.2842  143.5416  165.1926 C.ar    1  UNL1        0.0149
     26 C         138.9223  144.6295  164.2255 C.ar    1  UNL1        0.0013
     27 C         139.9824  145.2519  163.3659 C.ar    1  UNL1        0.0001
     28 C         141.4042  144.7864  163.4735 C.ar    1  UNL1        0.0013
     29 C         141.7660  143.6985  164.4406 C.ar    1  UNL1        0.0149
     30 C         141.5492  142.3380  167.6443 C.3     1  UNL1        0.0798
     31 C         142.9692  142.0561  168.0365 C.3     1  UNL1        0.0202
     32 C         143.4506  142.4062  169.4134 C.3     1  UNL1        0.0017
     33 C         142.5118  143.0380  170.3981 C.3     1  UNL1        0.0001
     34 C         141.0917  143.3199  170.0058 C.3     1  UNL1        0.0017
     35 C         140.6104  142.9699  168.6289 C.3     1  UNL1        0.0202
@<TRIPOS>BOND
     1    18    19    1
     2    19     6    1
     3     6     7   ar
     4     7     8   ar
     5     8     1    1
     6     1     2   ar
     7     2     3   ar
     8     3    20    1
     9    20    21    1
    10    21    22    2
    11    21    23   am
    12    23    24    1
    13    24    25   ar
    14    25    26   ar
    15    26    27   ar
    16    27    28   ar
    17    28    29   ar
    18    23    30    1
    19    30    31    1
    20    31    32    1
    21    32    33    1
    22    33    34    1
    23    34    35    1
    24     3     4   ar
    25     4     5   ar
    26     8     9   ar
    27     9    10   ar
    28    10    11   ar
    29    11    12    1
    30    12    13   ar
    31    13    14   ar
    32    14    15   ar
    33    15    16    1
    34    15    17   ar
    35    11     6   ar
    36    17    12   ar
    37     5     1   ar
    38    29    24   ar
    39    35    30    1
@<TRIPOS>MOLECULE
*****
 35 39 0 0 0
SMALL
GASTEIGER

@<TRIPOS>ATOM
      1 C         142.8767  137.2557  157.4240 C.ar    1  UNL1        0.1233
      2 C         142.3234  137.7583  158.7244 C.ar    1  UNL1        0.1181
      3 N         142.7985  139.1681  158.9163 N.ar    1  UNL1       -0.2208
      4 N         143.6455  139.5368  157.7344 N.ar    1  UNL1       -0.0633
      5 N         143.6938  138.3549  156.8121 N.ar    1  UNL1       -0.1287
      6 C         143.1246  133.3384  156.8383 C.ar    1  UNL1        0.1547
      7 C         143.3489  134.7009  157.4241 C.ar    1  UNL1        0.0400
      8 C         142.6524  135.8931  156.8381 C.ar    1  UNL1        0.0241
      9 C         141.7316  135.7229  155.6664 C.ar    1  UNL1        0.0033
     10 C         141.5073  134.3604  155.0806 C.ar    1  UNL1        0.0207
     11 C         142.2038  133.1681  155.6666 C.ar    1  UNL1        0.0994
     12 N         141.9795  131.8055  155.0807 N.ar    1  UNL1       -0.2839
     13 C         143.0359  130.9059  154.5109 C.ar    1  UNL1        0.1826
     14 N         142.3686  129.6478  154.0399 N.ar    1  UNL1       -0.2280
     15 C         140.8997  129.7698  154.3186 C.ar    1  UNL1        0.0786
     16 C         139.8549  128.7393  154.0085 C.3     1  UNL1        0.0538
     17 C         140.6593  131.1034  154.9618 C.ar    1  UNL1        0.0963
     18 C         145.2401  132.2634  157.8962 C.3     1  UNL1        0.2525
     19 O         143.8211  132.1461  157.4243 O.3     1  UNL1       -0.4700
     20 C         142.4822  140.0537  160.0850 C.3     1  UNL1        0.2141
     21 C         141.4232  139.6495  161.0674 C.2     1  UNL1        0.2542
     22 O         140.1507  139.0207  160.5820 O.2     1  UNL1       -0.2724
     23 N         141.6365  139.8740  162.5349 N.am    1  UNL1       -0.2587
     24 C         142.9091  140.5028  163.0202 C.ar    1  UNL1        0.0538
     25 C         144.0175  139.6411  163.5485 C.ar    1  UNL1        0.0149
     26 C         145.2899  140.2698  164.0337 C.ar    1  UNL1        0.0013
     27 C         145.4540  141.7602  163.9908 C.ar    1  UNL1        0.0001
     28 C         144.3457  142.6218  163.4625 C.ar    1  UNL1        0.0013
     29 C         143.0732  141.9931  162.9773 C.ar    1  UNL1        0.0149
     30 C         140.5775  139.4698  163.5173 C.3     1  UNL1        0.0798
     31 C         139.6444  140.5003  164.0806 C.3     1  UNL1        0.0202
     32 C         138.5854  140.0961  165.0629 C.3     1  UNL1        0.0017
     33 C         138.4595  138.6614  165.4821 C.3     1  UNL1        0.0001
     34 C         139.3926  137.6308  164.9189 C.3     1  UNL1        0.0017
     35 C         140.4516  138.0350  163.9365 C.3     1  UNL1        0.0202
@<TRIPOS>BOND
     1    18    19    1
     2    19     6    1
     3     6     7   ar
     4     7     8   ar
     5     8     1    1
     6     1     2   ar
     7     2     3   ar
     8     3    20    1
     9    20    21    1
    10    21    22    2
    11    21    23   am
    12    23    24    1
    13    24    25   ar
    14    25    26   ar
    15    26    27   ar
    16    27    28   ar
    17    28    29   ar
    18    23    30    1
    19    30    31    1
    20    31    32    1
    21    32    33    1
    22    33    34    1
    23    34    35    1
    24     3     4   ar
    25     4     5   ar
    26     8     9   ar
    27     9    10   ar
    28    10    11   ar
    29    11    12    1
    30    12    13   ar
    31    13    14   ar
    32    14    15   ar
    33    15    16    1
    34    15    17   ar
    35    11     6   ar
    36    17    12   ar
    37     5     1   ar
    38    29    24   ar
    39    35    30    1
@<TRIPOS>MOLECULE
*****
 35 39 0 0 0
SMALL
GASTEIGER

@<TRIPOS>ATOM
      1 C         143.8884  142.5487  161.6253 C.ar    1  UNL1        0.1233
      2 C         143.2017  141.9008  162.7908 C.ar    1  UNL1        0.1181
      3 N         143.3439  142.8090  163.9761 N.ar    1  UNL1       -0.2208
      4 N         144.1186  144.0183  163.5431 N.ar    1  UNL1       -0.0633
      5 N         144.4551  143.8574  162.0902 N.ar    1  UNL1       -0.1287
      6 C         143.7658  139.9823  158.6007 C.ar    1  UNL1        0.1547
      7 C         143.6637  140.5443  159.9876 C.ar    1  UNL1        0.0400
      8 C         143.9905  141.9867  160.2383 C.ar    1  UNL1        0.0241
      9 C         144.4194  142.8670  159.1020 C.ar    1  UNL1        0.0033
     10 C         144.5215  142.3049  157.7151 C.ar    1  UNL1        0.0207
     11 C         144.1947  140.8626  157.4644 C.ar    1  UNL1        0.0994
     12 N         144.2969  140.3005  156.0774 N.ar    1  UNL1       -0.2839
     13 C         145.5674  139.9827  155.3462 C.ar    1  UNL1        0.1826
     14 N         145.2021  139.4434  153.9950 N.ar    1  UNL1       -0.2280
     15 C         143.7058  139.4279  153.8911 C.ar    1  UNL1        0.0786
     16 C         142.9088  138.9641  152.7080 C.3     1  UNL1        0.0538
     17 C         143.1463  139.9576  155.1781 C.ar    1  UNL1        0.0963
     18 C         142.7395  137.7351  159.4049 C.3     1  UNL1        0.2525
     19 O         143.4390  138.5399  158.3500 O.3     1  UNL1       -0.4700
     20 C         142.8060  142.5529  165.3527 C.3     1  UNL1        0.2141
     21 C         142.0109  141.3111  165.6283 C.2     1  UNL1        0.2542
     22 O         142.6699  140.1251  166.2681 O.2     1  UNL1       -0.2724
     23 N         140.5569  141.2553  165.2641 N.am    1  UNL1       -0.2587
     24 C         139.8980  142.4413  164.6243 C.ar    1  UNL1        0.0538
     25 C         139.6124  142.4369  163.1518 C.ar    1  UNL1        0.0149
     26 C         138.9535  143.6228  162.5120 C.ar    1  UNL1        0.0013
     27 C         138.5801  144.8132  163.3448 C.ar    1  UNL1        0.0001
     28 C         138.8656  144.8176  164.8173 C.ar    1  UNL1        0.0013
     29 C         139.5246  143.6317  165.4570 C.ar    1  UNL1        0.0149
     30 C         139.7618  140.0136  165.5397 C.3     1  UNL1        0.0798
     31 C         139.8786  138.8300  164.6256 C.3     1  UNL1        0.0202
     32 C         139.0835  137.5883  164.9011 C.3     1  UNL1        0.0017
     33 C         138.1716  137.5301  166.0907 C.3     1  UNL1        0.0001
     34 C         138.0549  138.7137  167.0048 C.3     1  UNL1        0.0017
     35 C         138.8500  139.9554  166.7293 C.3     1  UNL1        0.0202
@<TRIPOS>BOND
     1    18    19    1
     2    19     6    1
     3     6     7   ar
     4     7     8   ar
     5     8     1    1
     6     1     2   ar
     7     2     3   ar
     8     3    20    1
     9    20    21    1
    10    21    22    2
    11    21    23   am
    12    23    24    1
    13    24    25   ar
    14    25    26   ar
    15    26    27   ar
    16    27    28   ar
    17    28    29   ar
    18    23    30    1
    19    30    31    1
    20    31    32    1
    21    32    33    1
    22    33    34    1
    23    34    35    1
    24     3     4   ar
    25     4     5   ar
    26     8     9   ar
    27     9    10   ar
    28    10    11   ar
    29    11    12    1
    30    12    13   ar
    31    13    14   ar
    32    14    15   ar
    33    15    16    1
    34    15    17   ar
    35    11     6   ar
    36    17    12   ar
    37     5     1   ar
    38    29    24   ar
    39    35    30    1
@<TRIPOS>MOLECULE
*****
 35 39 0 0 0
SMALL
GASTEIGER

@<TRIPOS>ATOM
      1 C         141.8374  138.0049  162.4157 C.ar    1  UNL1        0.1233
      2 C         142.8559  138.7390  163.2364 C.ar    1  UNL1        0.1181
      3 N         142.6587  138.3540  164.6727 N.ar    1  UNL1       -0.2208
      4 N         141.5182  137.3819  164.7396 N.ar    1  UNL1       -0.0633
      5 N         141.0107  137.1661  163.3447 N.ar    1  UNL1       -0.1287
      6 C         140.2135  138.6557  158.8534 C.ar    1  UNL1        0.1547
      7 C         140.3767  138.5668  160.3419 C.ar    1  UNL1        0.0400
      8 C         141.6743  138.0938  160.9272 C.ar    1  UNL1        0.0241
      9 C         142.8086  137.7098  160.0240 C.ar    1  UNL1        0.0033
     10 C         142.6454  137.7987  158.5356 C.ar    1  UNL1        0.0207
     11 C         141.3479  138.2717  157.9503 C.ar    1  UNL1        0.0994
     12 N         141.1847  138.3606  156.4618 N.ar    1  UNL1       -0.2839
     13 C         140.8853  137.2176  155.5378 C.ar    1  UNL1        0.1826
     14 N         140.8079  137.7588  154.1410 N.ar    1  UNL1       -0.2280
     15 C         141.0594  139.2363  154.2017 C.ar    1  UNL1        0.0786
     16 C         141.0752  140.1768  153.0333 C.3     1  UNL1        0.0538
     17 C         141.2923  139.6083  155.6361 C.ar    1  UNL1        0.0963
     18 C         138.3683  140.4729  158.6463 C.3     1  UNL1        0.2525
     19 O         138.9159  139.1287  158.2681 O.3     1  UNL1       -0.4700
     20 C         143.4610  138.8535  165.8375 C.3     1  UNL1        0.2141
     21 C         142.7660  139.4373  167.0317 C.2     1  UNL1        0.2542
     22 O         143.0162  138.8688  168.3973 O.2     1  UNL1       -0.2724
     23 N         141.8209  140.5893  166.8606 N.am    1  UNL1       -0.2587
     24 C         141.5708  141.1577  165.4951 C.ar    1  UNL1        0.0538
     25 C         142.5812  142.0707  164.8661 C.ar    1  UNL1        0.0149
     26 C         142.3311  142.6390  163.5007 C.ar    1  UNL1        0.0013
     27 C         141.0706  142.2943  162.7642 C.ar    1  UNL1        0.0001
     28 C         140.0603  141.3814  163.3932 C.ar    1  UNL1        0.0013
     29 C         140.3104  140.8131  164.7586 C.ar    1  UNL1        0.0149
     30 C         141.1259  141.1731  168.0548 C.3     1  UNL1        0.0798
     31 C         141.5588  142.5022  168.5991 C.3     1  UNL1        0.0202
     32 C         140.8638  143.0860  169.7933 C.3     1  UNL1        0.0017
     33 C         139.7359  142.3408  170.4432 C.3     1  UNL1        0.0001
     34 C         139.3029  141.0117  169.8990 C.3     1  UNL1        0.0017
     35 C         139.9979  140.4279  168.7048 C.3     1  UNL1        0.0202
@<TRIPOS>BOND
     1    18    19    1
     2    19     6    1
     3     6     7   ar
     4     7     8   ar
     5     8     1    1
     6     1     2   ar
     7     2     3   ar
     8     3    20    1
     9    20    21    1
    10    21    22    2
    11    21    23   am
    12    23    24    1
    13    24    25   ar
    14    25    26   ar
    15    26    27   ar
    16    27    28   ar
    17    28    29   ar
    18    23    30    1
    19    30    31    1
    20    31    32    1
    21    32    33    1
    22    33    34    1
    23    34    35    1
    24     3     4   ar
    25     4     5   ar
    26     8     9   ar
    27     9    10   ar
    28    10    11   ar
    29    11    12    1
    30    12    13   ar
    31    13    14   ar
    32    14    15   ar
    33    15    16    1
    34    15    17   ar
    35    11     6   ar
    36    17    12   ar
    37     5     1   ar
    38    29    24   ar
    39    35    30    1
