@<TRIPOS>MOLECULE
*****
 31 35 0 0 0
SMALL
GASTEIGER

@<TRIPOS>ATOM
      1 C         142.7753  138.0817  161.9665 C.ar    1  UNL1       -0.0065
      2 C         141.3331  137.6701  161.9886 C.ar    1  UNL1       -0.0032
      3 C         140.4780  137.9970  163.1768 C.ar    1  UNL1       -0.0026
      4 C         141.0651  138.7357  164.3429 C.ar    1  UNL1        0.0019
      5 C         142.5073  139.1474  164.3208 C.ar    1  UNL1       -0.0200
      6 C         143.3624  138.8204  163.1326 C.ar    1  UNL1       -0.0071
      7 C         142.8057  139.8597  165.6066 C.3     1  UNL1        0.0519
      8 C         141.5480  139.8883  166.4235 C.2     1  UNL1        0.0074
      9 C         140.9552  140.3462  167.7231 C.2     1  UNL1        0.0976
     10 N         139.5129  139.9346  167.7452 N.2     1  UNL1       -0.1526
     11 N         139.2145  139.2222  166.4593 N.2     1  UNL1       -0.1678
     12 C         140.4722  139.1936  165.6425 C.3     1  UNL1        0.1672
     13 C         141.6777  141.0859  168.8097 C.ar    1  UNL1        0.0265
     14 C         141.1874  141.2924  170.2123 C.ar    1  UNL1        0.0376
     15 S         142.2241  142.0831  170.9539 S.2     1  UNL1       -0.0780
     16 C         143.3550  142.3654  170.0098 C.ar    1  UNL1        0.0709
     17 C         143.0173  141.7491  168.6846 C.ar    1  UNL1        0.0168
     18 C         144.6043  143.1297  170.3339 C.1     1  UNL1       -0.0577
     19 C         145.8536  143.8940  170.6580 C.1     1  UNL1       -0.0833
     20 C         147.1029  144.6584  170.9821 C.3     1  UNL1        0.1081
     21 C         147.1897  145.4490  172.2539 C.3     1  UNL1        0.1511
     22 O         147.2945  146.9445  172.2017 O.3     1  UNL1       -0.3809
     23 H         148.1393  147.1955  171.7965 H       1  UNL1        0.2105
     24 C         143.6305  137.7547  160.7783 C.3     1  UNL1        0.0992
     25 C         142.5378  140.3633  155.4867 C.3     1  UNL1        0.0897
     26 N         142.8109  139.7111  156.8096 N.3     1  UNL1       -0.2691
     27 C         143.4705  140.4909  157.9081 C.3     1  UNL1        0.0897
     28 C         143.7437  139.8388  159.2311 C.3     1  UNL1        0.0899
     29 N         143.3573  138.4069  159.4554 N.3     1  UNL1       -0.2665
     30 C         142.6977  137.6271  158.3568 C.3     1  UNL1        0.0899
     31 C         142.4246  138.2792  157.0339 C.3     1  UNL1        0.0897
@<TRIPOS>BOND
     1    25    26    1
     2    26    27    1
     3    27    28    1
     4    28    29    1
     5    29    24    1
     6    24     1    1
     7     1     2   ar
     8     2     3   ar
     9     3     4   ar
    10     4     5   ar
    11     5     6   ar
    12     5     7    1
    13     7     8    1
    14     8     9    2
    15     9    13    1
    16    13    14   ar
    17    14    15   ar
    18    15    16   ar
    19    16    18    1
    20    18    19    3
    21    19    20    1
    22    20    21    1
    23    21    22    1
    24    16    17   ar
    25     9    10    1
    26    10    11    2
    27    11    12    1
    28    29    30    1
    29    30    31    1
    30    31    26    1
    31     6     1   ar
    32    12     8    1
    33    12     4    1
    34    17    13   ar
    35    22    23    1
@<TRIPOS>MOLECULE
*****
 31 35 0 0 0
SMALL
GASTEIGER

@<TRIPOS>ATOM
      1 C         141.8449  137.6694  157.7690 C.ar    1  UNL1       -0.0065
      2 C         140.6745  138.2976  157.0722 C.ar    1  UNL1       -0.0032
      3 C         139.6347  139.0315  157.8661 C.ar    1  UNL1       -0.0026
      4 C         139.7653  139.1371  159.3566 C.ar    1  UNL1        0.0019
      5 C         140.9357  138.5089  160.0534 C.ar    1  UNL1       -0.0200
      6 C         141.9755  137.7751  159.2595 C.ar    1  UNL1       -0.0071
      7 C         140.7980  138.7758  161.5230 C.3     1  UNL1        0.0519
      8 C         139.5426  139.5689  161.7346 C.2     1  UNL1        0.0074
      9 C         138.6816  140.2240  162.7736 C.2     1  UNL1        0.0976
     10 N         137.5112  140.8522  162.0769 N.2     1  UNL1       -0.1526
     11 N         137.6489  140.5853  160.6072 N.2     1  UNL1       -0.1678
     12 C         138.9043  139.7923  160.3957 C.3     1  UNL1        0.1672
     13 C         138.9449  140.2468  164.2502 C.ar    1  UNL1        0.0265
     14 C         138.6113  139.1542  165.2223 C.ar    1  UNL1        0.0376
     15 S         139.0482  139.5984  166.5867 S.2     1  UNL1       -0.0780
     16 C         139.6518  140.9656  166.4579 C.ar    1  UNL1        0.0709
     17 C         139.5879  141.3663  165.0139 C.ar    1  UNL1        0.0168
     18 C         140.2195  141.7876  167.5767 C.1     1  UNL1       -0.0577
     19 C         140.7874  142.6097  168.6956 C.1     1  UNL1       -0.0833
     20 C         141.3551  143.4318  169.8144 C.3     1  UNL1        0.1081
     21 C         142.4629  142.8809  170.6626 C.3     1  UNL1        0.1511
     22 O         142.1409  142.0764  171.8871 O.3     1  UNL1       -0.3809
     23 H         141.7028  142.6437  172.5406 H       1  UNL1        0.2105
     24 C         142.8848  136.9356  156.9751 C.3     1  UNL1        0.0992
     25 C         142.2214  131.0793  155.8512 C.3     1  UNL1        0.0897
     26 N         142.3873  132.5433  156.1322 N.3     1  UNL1       -0.2691
     27 C         141.6098  133.5519  155.3396 C.3     1  UNL1        0.0897
     28 C         141.7756  135.0160  155.6205 C.3     1  UNL1        0.0899
     29 N         142.7190  135.4715  156.6942 N.3     1  UNL1       -0.2665
     30 C         143.4965  134.4629  157.4868 C.3     1  UNL1        0.0899
     31 C         143.3306  132.9988  157.2058 C.3     1  UNL1        0.0897
@<TRIPOS>BOND
     1    25    26    1
     2    26    27    1
     3    27    28    1
     4    28    29    1
     5    29    24    1
     6    24     1    1
     7     1     2   ar
     8     2     3   ar
     9     3     4   ar
    10     4     5   ar
    11     5     6   ar
    12     5     7    1
    13     7     8    1
    14     8     9    2
    15     9    13    1
    16    13    14   ar
    17    14    15   ar
    18    15    16   ar
    19    16    18    1
    20    18    19    3
    21    19    20    1
    22    20    21    1
    23    21    22    1
    24    16    17   ar
    25     9    10    1
    26    10    11    2
    27    11    12    1
    28    29    30    1
    29    30    31    1
    30    31    26    1
    31     6     1   ar
    32    12     8    1
    33    12     4    1
    34    17    13   ar
    35    22    23    1
@<TRIPOS>MOLECULE
*****
 31 35 0 0 0
SMALL
GASTEIGER

@<TRIPOS>ATOM
      1 C         140.0300  139.0757  160.6469 C.ar    1  UNL1       -0.0065
      2 C         141.4295  139.5888  160.4795 C.ar    1  UNL1       -0.0032
      3 C         142.1687  140.1494  161.6581 C.ar    1  UNL1       -0.0026
      4 C         141.5084  140.1969  163.0042 C.ar    1  UNL1        0.0019
      5 C         140.1089  139.6837  163.1715 C.ar    1  UNL1       -0.0200
      6 C         139.3697  139.1231  161.9929 C.ar    1  UNL1       -0.0071
      7 C         139.7199  139.8590  164.6095 C.3     1  UNL1        0.0519
      8 C         140.8789  140.4806  165.3309 C.2     1  UNL1        0.0074
      9 C         141.3547  140.9730  166.6655 C.2     1  UNL1        0.0976
     10 N         142.7542  141.4861  166.4981 N.2     1  UNL1       -0.1526
     11 N         143.1433  141.3108  165.0601 N.2     1  UNL1       -0.1678
     12 C         141.9843  140.6894  164.3388 C.3     1  UNL1        0.1672
     13 C         140.5690  140.9554  167.9431 C.ar    1  UNL1        0.0265
     14 C         140.7802  141.8603  169.1207 C.ar    1  UNL1        0.0376
     15 S         139.7758  141.4939  170.1728 S.2     1  UNL1       -0.0780
     16 C         138.9438  140.3626  169.6455 C.ar    1  UNL1        0.0709
     17 C         139.4340  140.0298  168.2675 C.ar    1  UNL1        0.0168
     18 C         137.8191  139.6835  170.3692 C.1     1  UNL1       -0.0577
     19 C         136.6944  139.0042  171.0928 C.1     1  UNL1       -0.0833
     20 C         135.5697  138.3250  171.8165 C.3     1  UNL1        0.1081
     21 C         135.8666  137.3423  172.9102 C.3     1  UNL1        0.1511
     22 O         135.6778  135.8736  172.6705 O.3     1  UNL1       -0.3809
     23 H         134.7357  135.6865  172.5355 H       1  UNL1        0.2105
     24 C         139.2907  138.5151  159.4682 C.3     1  UNL1        0.0992
     25 C         137.7966  142.0900  154.8870 C.3     1  UNL1        0.0897
     26 N         138.1701  141.1963  156.0323 N.3     1  UNL1       -0.2691
     27 C         139.1068  140.0457  155.8112 C.3     1  UNL1        0.0897
     28 C         139.4803  139.1519  156.9565 C.3     1  UNL1        0.0899
     29 N         138.9172  139.4088  158.3229 N.3     1  UNL1       -0.2665
     30 C         137.9805  140.5594  158.5439 C.3     1  UNL1        0.0899
     31 C         137.6070  141.4531  157.3986 C.3     1  UNL1        0.0897
@<TRIPOS>BOND
     1    25    26    1
     2    26    27    1
     3    27    28    1
     4    28    29    1
     5    29    24    1
     6    24     1    1
     7     1     2   ar
     8     2     3   ar
     9     3     4   ar
    10     4     5   ar
    11     5     6   ar
    12     5     7    1
    13     7     8    1
    14     8     9    2
    15     9    13    1
    16    13    14   ar
    17    14    15   ar
    18    15    16   ar
    19    16    18    1
    20    18    19    3
    21    19    20    1
    22    20    21    1
    23    21    22    1
    24    16    17   ar
    25     9    10    1
    26    10    11    2
    27    11    12    1
    28    29    30    1
    29    30    31    1
    30    31    26    1
    31     6     1   ar
    32    12     8    1
    33    12     4    1
    34    17    13   ar
    35    22    23    1
@<TRIPOS>MOLECULE
*****
 31 35 0 0 0
SMALL
GASTEIGER

@<TRIPOS>ATOM
      1 C         140.9619  142.1450  160.7173 C.ar    1  UNL1       -0.0065
      2 C         142.4258  142.4673  160.7726 C.ar    1  UNL1       -0.0032
      3 C         143.1207  142.5743  162.0976 C.ar    1  UNL1       -0.0026
      4 C         142.3516  142.3591  163.3673 C.ar    1  UNL1        0.0019
      5 C         140.8877  142.0368  163.3120 C.ar    1  UNL1       -0.0200
      6 C         140.1929  141.9298  161.9870 C.ar    1  UNL1       -0.0071
      7 C         140.3947  141.8778  164.7197 C.3     1  UNL1        0.0519
      8 C         141.5539  142.1018  165.6450 C.2     1  UNL1        0.0074
      9 C         141.9655  142.1420  167.0869 C.2     1  UNL1        0.0976
     10 N         143.4294  142.4643  167.1421 N.2     1  UNL1       -0.1526
     11 N         143.9225  142.6233  165.7344 N.2     1  UNL1       -0.1678
     12 C         142.7634  142.3993  164.8092 C.3     1  UNL1        0.1672
     13 C         141.0704  141.9020  168.2664 C.ar    1  UNL1        0.0265
     14 C         141.0911  142.6639  169.5584 C.ar    1  UNL1        0.0376
     15 S         140.0309  142.0908  170.4514 S.2     1  UNL1       -0.0780
     16 C         139.3550  140.9747  169.7114 C.ar    1  UNL1        0.0709
     17 C         139.9975  140.8581  168.3610 C.ar    1  UNL1        0.0168
     18 C         138.2336  140.1246  170.2306 C.1     1  UNL1       -0.0577
     19 C         137.1122  139.2744  170.7499 C.1     1  UNL1       -0.0833
     20 C         135.9907  138.4242  171.2691 C.3     1  UNL1        0.1081
     21 C         136.2542  137.4074  172.3399 C.3     1  UNL1        0.1511
     22 O         137.3537  136.4021  172.1653 O.3     1  UNL1       -0.3809
     23 H         137.1361  135.8095  171.4288 H       1  UNL1        0.2105
     24 C         140.2670  142.0380  159.3922 C.3     1  UNL1        0.0992
     25 C         139.5478  146.9196  155.9788 C.3     1  UNL1        0.0897
     26 N         139.7276  145.6992  156.8321 N.3     1  UNL1       -0.2691
     27 C         140.3021  145.8268  158.2118 C.3     1  UNL1        0.0897
     28 C         140.4820  144.6064  159.0652 C.3     1  UNL1        0.0899
     29 N         140.0872  143.2584  158.5389 N.3     1  UNL1       -0.2665
     30 C         139.5126  143.1308  157.1592 C.3     1  UNL1        0.0899
     31 C         139.3328  144.3512  156.3058 C.3     1  UNL1        0.0897
@<TRIPOS>BOND
     1    25    26    1
     2    26    27    1
     3    27    28    1
     4    28    29    1
     5    29    24    1
     6    24     1    1
     7     1     2   ar
     8     2     3   ar
     9     3     4   ar
    10     4     5   ar
    11     5     6   ar
    12     5     7    1
    13     7     8    1
    14     8     9    2
    15     9    13    1
    16    13    14   ar
    17    14    15   ar
    18    15    16   ar
    19    16    18    1
    20    18    19    3
    21    19    20    1
    22    20    21    1
    23    21    22    1
    24    16    17   ar
    25     9    10    1
    26    10    11    2
    27    11    12    1
    28    29    30    1
    29    30    31    1
    30    31    26    1
    31     6     1   ar
    32    12     8    1
    33    12     4    1
    34    17    13   ar
    35    22    23    1
@<TRIPOS>MOLECULE
*****
 31 35 0 0 0
SMALL
GASTEIGER

@<TRIPOS>ATOM
      1 C         142.9039  139.5539  160.6152 C.ar    1  UNL1       -0.0065
      2 C         142.3902  140.9532  160.4476 C.ar    1  UNL1       -0.0032
      3 C         141.9841  141.7521  161.6503 C.ar    1  UNL1       -0.0026
      4 C         142.0916  141.1518  163.0208 C.ar    1  UNL1        0.0019
      5 C         142.6053  139.7526  163.1884 C.ar    1  UNL1       -0.0200
      6 C         143.0115  138.9536  161.9857 C.ar    1  UNL1       -0.0071
      7 C         142.6001  139.4293  164.6531 C.3     1  UNL1        0.0519
      8 C         142.0831  140.6288  165.3908 C.2     1  UNL1        0.0074
      9 C         141.7604  141.1702  166.7519 C.2     1  UNL1        0.0976
     10 N         141.2467  142.5695  166.5842 N.2     1  UNL1       -0.1526
     11 N         141.2520  142.8928  165.1195 N.2     1  UNL1       -0.1678
     12 C         141.7689  141.6934  164.3819 C.3     1  UNL1        0.1672
     13 C         141.9229  140.4405  168.0523 C.ar    1  UNL1        0.0265
     14 C         141.2633  140.7968  169.3516 C.ar    1  UNL1        0.0376
     15 S         141.7063  139.8029  170.3841 S.2     1  UNL1       -0.0780
     16 C         142.6395  138.8324  169.7229 C.ar    1  UNL1        0.0709
     17 C         142.7734  139.2265  168.2818 C.ar    1  UNL1        0.0168
     18 C         143.3195  137.6716  170.3863 C.1     1  UNL1       -0.0577
     19 C         143.9995  136.5108  171.0498 C.1     1  UNL1       -0.0833
     20 C         144.6795  135.3500  171.7133 C.3     1  UNL1        0.1081
     21 C         145.8152  135.5893  172.6635 C.3     1  UNL1        0.1511
     22 O         147.2203  135.6778  172.1458 O.3     1  UNL1       -0.3809
     23 H         147.4875  134.8172  171.7869 H       1  UNL1        0.2105
     24 C         143.3101  138.7549  159.4124 C.3     1  UNL1        0.0992
     25 C         139.1721  137.0066  155.4350 C.3     1  UNL1        0.0897
     26 N         140.2066  137.4437  156.4294 N.3     1  UNL1       -0.2691
     27 C         141.6644  137.2879  156.1125 C.3     1  UNL1        0.0897
     28 C         142.6989  137.7250  157.1068 C.3     1  UNL1        0.0899
     29 N         142.2756  138.3178  158.4181 N.3     1  UNL1       -0.2665
     30 C         140.8177  138.4736  158.7350 C.3     1  UNL1        0.0899
     31 C         139.7832  138.0365  157.7406 C.3     1  UNL1        0.0897
@<TRIPOS>BOND
     1    25    26    1
     2    26    27    1
     3    27    28    1
     4    28    29    1
     5    29    24    1
     6    24     1    1
     7     1     2   ar
     8     2     3   ar
     9     3     4   ar
    10     4     5   ar
    11     5     6   ar
    12     5     7    1
    13     7     8    1
    14     8     9    2
    15     9    13    1
    16    13    14   ar
    17    14    15   ar
    18    15    16   ar
    19    16    18    1
    20    18    19    3
    21    19    20    1
    22    20    21    1
    23    21    22    1
    24    16    17   ar
    25     9    10    1
    26    10    11    2
    27    11    12    1
    28    29    30    1
    29    30    31    1
    30    31    26    1
    31     6     1   ar
    32    12     8    1
    33    12     4    1
    34    17    13   ar
    35    22    23    1
@<TRIPOS>MOLECULE
*****
 31 35 0 0 0
SMALL
GASTEIGER

@<TRIPOS>ATOM
      1 C         141.7549  141.5911  161.0019 C.ar    1  UNL1       -0.0065
      2 C         143.1566  142.0984  161.1688 C.ar    1  UNL1       -0.0032
      3 C         143.6862  142.4019  162.5389 C.ar    1  UNL1       -0.0026
      4 C         142.8141  142.1980  163.7422 C.ar    1  UNL1        0.0019
      5 C         141.4125  141.6907  163.5754 C.ar    1  UNL1       -0.0200
      6 C         140.8828  141.3873  162.2052 C.ar    1  UNL1       -0.0071
      7 C         140.7913  141.5887  164.9369 C.3     1  UNL1        0.0519
      8 C         141.8091  142.0329  165.9452 C.2     1  UNL1        0.0074
      9 C         142.0542  142.2444  167.4099 C.2     1  UNL1        0.0976
     10 N         143.4559  142.7517  167.5767 N.2     1  UNL1       -0.1526
     11 N         144.0771  142.8537  166.2152 N.2     1  UNL1       -0.1678
     12 C         143.0593  142.4095  165.2069 C.3     1  UNL1        0.1672
     13 C         141.0704  141.9927  168.5139 C.ar    1  UNL1        0.0265
     14 C         140.8948  142.8298  169.7462 C.ar    1  UNL1        0.0376
     15 S         139.8053  142.2143  170.5732 S.2     1  UNL1       -0.0780
     16 C         139.3075  140.9968  169.8521 C.ar    1  UNL1        0.0709
     17 C         140.0894  140.8599  168.5793 C.ar    1  UNL1        0.0168
     18 C         138.2190  140.0776  170.3213 C.1     1  UNL1       -0.0577
     19 C         137.1305  139.1584  170.7906 C.1     1  UNL1       -0.0833
     20 C         136.0420  138.2392  171.2598 C.3     1  UNL1        0.1081
     21 C         136.2445  137.4025  172.4882 C.3     1  UNL1        0.1511
     22 O         135.7041  136.0042  172.5407 O.3     1  UNL1       -0.3809
     23 H         134.7347  136.0312  172.5207 H       1  UNL1        0.2105
     24 C         141.2252  141.2876  159.6317 C.3     1  UNL1        0.0992
     25 C         143.0465  136.3590  156.7349 C.3     1  UNL1        0.0897
     26 N         142.5912  137.5912  157.4591 N.3     1  UNL1       -0.2691
     27 C         142.7489  137.6875  158.9476 C.3     1  UNL1        0.0897
     28 C         142.2935  138.9197  159.6719 C.3     1  UNL1        0.0899
     29 N         141.6805  140.0555  158.9075 N.3     1  UNL1       -0.2665
     30 C         141.5229  139.9591  157.4189 C.3     1  UNL1        0.0899
     31 C         141.9782  138.7270  156.6947 C.3     1  UNL1        0.0897
@<TRIPOS>BOND
     1    25    26    1
     2    26    27    1
     3    27    28    1
     4    28    29    1
     5    29    24    1
     6    24     1    1
     7     1     2   ar
     8     2     3   ar
     9     3     4   ar
    10     4     5   ar
    11     5     6   ar
    12     5     7    1
    13     7     8    1
    14     8     9    2
    15     9    13    1
    16    13    14   ar
    17    14    15   ar
    18    15    16   ar
    19    16    18    1
    20    18    19    3
    21    19    20    1
    22    20    21    1
    23    21    22    1
    24    16    17   ar
    25     9    10    1
    26    10    11    2
    27    11    12    1
    28    29    30    1
    29    30    31    1
    30    31    26    1
    31     6     1   ar
    32    12     8    1
    33    12     4    1
    34    17    13   ar
    35    22    23    1
@<TRIPOS>MOLECULE
*****
 31 35 0 0 0
SMALL
GASTEIGER

@<TRIPOS>ATOM
      1 C         143.4717  142.4603  161.1720 C.ar    1  UNL1       -0.0065
      2 C         142.1353  143.1326  161.0628 C.ar    1  UNL1       -0.0032
      3 C         141.2135  143.1656  162.2457 C.ar    1  UNL1       -0.0026
      4 C         141.6281  142.5261  163.5377 C.ar    1  UNL1        0.0019
      5 C         142.9645  141.8538  163.6468 C.ar    1  UNL1       -0.0200
      6 C         143.8863  141.8209  162.4640 C.ar    1  UNL1       -0.0071
      7 C         143.0990  141.3131  165.0395 C.3     1  UNL1        0.0519
      8 C         141.8456  141.6512  165.7910 C.2     1  UNL1        0.0074
      9 C         141.1541  141.5259  167.1162 C.2     1  UNL1        0.0976
     10 N         139.8178  142.1983  167.0071 N.2     1  UNL1       -0.1526
     11 N         139.6833  142.7390  165.6144 N.2     1  UNL1       -0.1678
     12 C         140.9366  142.4009  164.8629 C.3     1  UNL1        0.1672
     13 C         141.7028  140.8475  168.3364 C.ar    1  UNL1        0.0265
     14 C         141.7718  141.4338  169.7153 C.ar    1  UNL1        0.0376
     15 S         142.3904  140.4123  170.6229 S.2     1  UNL1       -0.0780
     16 C         142.7036  139.1946  169.8050 C.ar    1  UNL1        0.0709
     17 C         142.2787  139.4636  168.3918 C.ar    1  UNL1        0.0168
     18 C         143.3316  137.9300  170.3112 C.1     1  UNL1       -0.0577
     19 C         143.9596  136.6653  170.8175 C.1     1  UNL1       -0.0833
     20 C         144.5875  135.4006  171.3238 C.3     1  UNL1        0.1081
     21 C         145.4538  135.4313  172.5479 C.3     1  UNL1        0.1511
     22 O         146.9240  135.1563  172.4334 O.3     1  UNL1       -0.3809
     23 H         147.0605  134.2354  172.1610 H       1  UNL1        0.2105
     24 C         144.3936  142.4273  159.9891 C.3     1  UNL1        0.0992
     25 C         143.6528  138.2737  155.7231 C.3     1  UNL1        0.0897
     26 N         143.8380  139.3121  156.7896 N.3     1  UNL1       -0.2691
     27 C         144.7369  140.4875  156.5439 C.3     1  UNL1        0.0897
     28 C         144.9222  141.5259  157.6104 C.3     1  UNL1        0.0899
     29 N         144.2084  141.3889  158.9226 N.3     1  UNL1       -0.2665
     30 C         143.3095  140.2135  159.1683 C.3     1  UNL1        0.0899
     31 C         143.1243  139.1751  158.1018 C.3     1  UNL1        0.0897
@<TRIPOS>BOND
     1    25    26    1
     2    26    27    1
     3    27    28    1
     4    28    29    1
     5    29    24    1
     6    24     1    1
     7     1     2   ar
     8     2     3   ar
     9     3     4   ar
    10     4     5   ar
    11     5     6   ar
    12     5     7    1
    13     7     8    1
    14     8     9    2
    15     9    13    1
    16    13    14   ar
    17    14    15   ar
    18    15    16   ar
    19    16    18    1
    20    18    19    3
    21    19    20    1
    22    20    21    1
    23    21    22    1
    24    16    17   ar
    25     9    10    1
    26    10    11    2
    27    11    12    1
    28    29    30    1
    29    30    31    1
    30    31    26    1
    31     6     1   ar
    32    12     8    1
    33    12     4    1
    34    17    13   ar
    35    22    23    1
@<TRIPOS>MOLECULE
*****
 31 35 0 0 0
SMALL
GASTEIGER

@<TRIPOS>ATOM
      1 C         141.1417  143.5402  161.1124 C.ar    1  UNL1       -0.0065
      2 C         142.6328  143.6485  161.2339 C.ar    1  UNL1       -0.0032
      3 C         143.2928  143.4523  162.5665 C.ar    1  UNL1       -0.0026
      4 C         142.4618  143.1478  163.7775 C.ar    1  UNL1        0.0019
      5 C         140.9707  143.0395  163.6560 C.ar    1  UNL1       -0.0200
      6 C         140.3106  143.2357  162.3234 C.ar    1  UNL1       -0.0071
      7 C         140.4161  142.7311  165.0151 C.3     1  UNL1        0.0519
      8 C         141.5644  142.6488  165.9767 C.2     1  UNL1        0.0074
      9 C         141.9313  142.4073  167.4109 C.2     1  UNL1        0.0976
     10 N         143.4224  142.5156  167.5324 N.2     1  UNL1       -0.1526
     11 N         143.9770  142.8240  166.1733 N.2     1  UNL1       -0.1678
     12 C         142.8288  142.9063  165.2118 C.3     1  UNL1        0.1672
     13 C         140.9750  142.1098  168.5276 C.ar    1  UNL1        0.0265
     14 C         140.8262  142.8986  169.7948 C.ar    1  UNL1        0.0376
     15 S         139.7588  142.2476  170.6234 S.2     1  UNL1       -0.0780
     16 C         139.2479  141.0564  169.8684 C.ar    1  UNL1        0.0709
     17 C         139.9995  140.9712  168.5732 C.ar    1  UNL1        0.0168
     18 C         138.1739  140.1155  170.3280 C.1     1  UNL1       -0.0577
     19 C         137.0998  139.1746  170.7877 C.1     1  UNL1       -0.0833
     20 C         136.0258  138.2337  171.2473 C.3     1  UNL1        0.1081
     21 C         136.2330  137.4033  172.4792 C.3     1  UNL1        0.1511
     22 O         135.8183  135.9618  172.4904 O.3     1  UNL1       -0.3809
     23 H         134.8531  135.9024  172.4150 H       1  UNL1        0.2105
     24 C         140.4815  143.7364  159.7798 C.3     1  UNL1        0.0992
     25 C         139.2476  138.9953  156.3159 C.3     1  UNL1        0.0897
     26 N         139.5561  140.1805  157.1819 N.3     1  UNL1       -0.2691
     27 C         140.9526  140.7251  157.2381 C.3     1  UNL1        0.0897
     28 C         141.2611  141.9104  158.1041 C.3     1  UNL1        0.0899
     29 N         140.1731  142.5512  158.9138 N.3     1  UNL1       -0.2665
     30 C         138.7765  142.0065  158.8576 C.3     1  UNL1        0.0899
     31 C         138.4680  140.8213  157.9916 C.3     1  UNL1        0.0897
@<TRIPOS>BOND
     1    25    26    1
     2    26    27    1
     3    27    28    1
     4    28    29    1
     5    29    24    1
     6    24     1    1
     7     1     2   ar
     8     2     3   ar
     9     3     4   ar
    10     4     5   ar
    11     5     6   ar
    12     5     7    1
    13     7     8    1
    14     8     9    2
    15     9    13    1
    16    13    14   ar
    17    14    15   ar
    18    15    16   ar
    19    16    18    1
    20    18    19    3
    21    19    20    1
    22    20    21    1
    23    21    22    1
    24    16    17   ar
    25     9    10    1
    26    10    11    2
    27    11    12    1
    28    29    30    1
    29    30    31    1
    30    31    26    1
    31     6     1   ar
    32    12     8    1
    33    12     4    1
    34    17    13   ar
    35    22    23    1
@<TRIPOS>MOLECULE
*****
 31 35 0 0 0
SMALL
GASTEIGER

@<TRIPOS>ATOM
      1 C         142.1887  137.6658  156.9408 C.ar    1  UNL1       -0.0065
      2 C         143.1879  138.5240  156.2230 C.ar    1  UNL1       -0.0032
      3 C         143.7403  139.7490  156.8894 C.ar    1  UNL1       -0.0026
      4 C         143.2937  140.1158  158.2736 C.ar    1  UNL1        0.0019
      5 C         142.2946  139.2576  158.9914 C.ar    1  UNL1       -0.0200
      6 C         141.7421  138.0326  158.3250 C.ar    1  UNL1       -0.0071
      7 C         142.0440  139.8664  160.3392 C.3     1  UNL1        0.0519
      8 C         142.8882  141.1009  160.4544 C.2     1  UNL1        0.0074
      9 C         143.2551  142.2402  161.3586 C.2     1  UNL1        0.0976
     10 N         144.2542  143.0983  160.6408 N.2     1  UNL1       -0.1526
     11 N         144.5048  142.4895  159.2930 N.2     1  UNL1       -0.1678
     12 C         143.6606  141.2551  159.1778 C.3     1  UNL1        0.1672
     13 C         142.7173  142.4792  162.7383 C.ar    1  UNL1        0.0265
     14 C         141.3928  143.0988  163.0732 C.ar    1  UNL1        0.0376
     15 S         141.2665  143.1431  164.5672 S.2     1  UNL1       -0.0780
     16 C         142.5128  142.5510  165.1556 C.ar    1  UNL1        0.0709
     17 C         143.4094  142.1407  164.0253 C.ar    1  UNL1        0.0168
     18 C         142.8102  142.3963  166.6177 C.1     1  UNL1       -0.0577
     19 C         143.1076  142.2416  168.0798 C.1     1  UNL1       -0.0833
     20 C         143.4051  142.0870  169.5418 C.3     1  UNL1        0.1081
     21 C         142.6716  142.9224  170.5488 C.3     1  UNL1        0.1511
     22 O         142.2961  142.3371  171.8780 O.3     1  UNL1       -0.3809
     23 H         141.6444  141.6306  171.7476 H       1  UNL1        0.2105
     24 C         141.6362  136.4408  156.2743 C.3     1  UNL1        0.0992
     25 C         144.8641  131.3849  156.1392 C.3     1  UNL1        0.0897
     26 N         144.0571  132.6489  156.1730 N.3     1  UNL1       -0.2691
     27 C         144.1009  133.5345  157.3828 C.3     1  UNL1        0.0897
     28 C         143.2939  134.7985  157.4166 C.3     1  UNL1        0.0899
     29 N         142.4432  135.1768  156.2406 N.3     1  UNL1       -0.2665
     30 C         142.3994  134.2912  155.0307 C.3     1  UNL1        0.0899
     31 C         143.2064  133.0272  154.9969 C.3     1  UNL1        0.0897
@<TRIPOS>BOND
     1    25    26    1
     2    26    27    1
     3    27    28    1
     4    28    29    1
     5    29    24    1
     6    24     1    1
     7     1     2   ar
     8     2     3   ar
     9     3     4   ar
    10     4     5   ar
    11     5     6   ar
    12     5     7    1
    13     7     8    1
    14     8     9    2
    15     9    13    1
    16    13    14   ar
    17    14    15   ar
    18    15    16   ar
    19    16    18    1
    20    18    19    3
    21    19    20    1
    22    20    21    1
    23    21    22    1
    24    16    17   ar
    25     9    10    1
    26    10    11    2
    27    11    12    1
    28    29    30    1
    29    30    31    1
    30    31    26    1
    31     6     1   ar
    32    12     8    1
    33    12     4    1
    34    17    13   ar
    35    22    23    1
