@<TRIPOS>MOLECULE
*****
 33 36 0 0 0
SMALL
GASTEIGER

@<TRIPOS>ATOM
      1 C         138.3718  139.2192  162.4585 C.ar    1  UNL1        0.0505
      2 C         137.9631  140.5107  163.1025 C.ar    1  UNL1        0.0148
      3 C         138.0650  140.6720  164.5903 C.ar    1  UNL1        0.0060
      4 C         138.5755  139.5417  165.4340 C.ar    1  UNL1        0.0553
      5 C         138.9842  138.2502  164.7900 C.ar    1  UNL1        0.0060
      6 C         138.8823  138.0889  163.3022 C.ar    1  UNL1        0.0148
      7 C         138.6774  139.7031  166.9219 C.ar    1  UNL1        0.2512
      8 N         137.8961  138.9363  167.9474 N.ar    1  UNL1       -0.1058
      9 N         138.3143  139.4188  169.3048 N.ar    1  UNL1       -0.0923
     10 C         139.3540  140.4838  169.1181 C.ar    1  UNL1        0.3086
     11 O         139.5784  140.6595  167.6454 O.2     1  UNL1       -0.4048
     12 N         140.0475  141.2403  170.2120 N.pl3   1  UNL1       -0.2871
     13 H         140.3148  140.7765  171.0383 H       1  UNL1        0.1512
     14 C         140.3338  142.7035  170.0471 C.3     1  UNL1        0.0925
     15 C         141.7521  143.1874  169.9815 C.3     1  UNL1        0.0386
     16 C         142.8550  142.2327  169.6320 C.3     1  UNL1        0.0738
     17 N         142.7778  141.4278  168.3686 N.3     1  UNL1       -0.2726
     18 C         142.8195  139.9296  168.4300 C.3     1  UNL1        0.0721
     19 C         142.7424  139.1248  167.1667 C.3     1  UNL1        0.0174
     20 C         142.6235  139.8180  165.8418 C.3     1  UNL1        0.0029
     21 C         142.5818  141.3161  165.7803 C.3     1  UNL1        0.0174
     22 C         142.6590  142.1210  167.0438 C.3     1  UNL1        0.0721
     23 O         140.7717  139.7152  160.7280 O.2     1  UNL1       -0.2698
     24 C         139.4698  139.3058  160.1054 C.2     1  UNL1        0.2495
     25 N         138.2699  139.0578  160.9706 N.am    1  UNL1       -0.2804
     26 H         137.4155  138.7891  160.5619 H       1  UNL1        0.1552
     27 C         139.3680  139.1445  158.6175 C.ar    1  UNL1        0.0538
     28 C         140.0011  137.9619  157.9463 C.ar    1  UNL1        0.0068
     29 C         139.8992  137.8006  156.4585 C.ar    1  UNL1        0.0298
     30 C         139.1642  138.8219  155.6420 C.ar    1  UNL1        0.1401
     31 F         139.0623  138.6605  154.1541 F       1  UNL1       -0.2042
     32 C         138.5310  140.0044  156.3132 C.ar    1  UNL1        0.0298
     33 C         138.6329  140.1657  157.8010 C.ar    1  UNL1        0.0068
@<TRIPOS>BOND
     1    23    24    2
     2    24    25   am
     3    25     1    1
     4     1     2   ar
     5     2     3   ar
     6     3     4   ar
     7     4     7    1
     8     7     8   ar
     9     8     9   ar
    10     9    10   ar
    11    10    12    1
    12    12    14    1
    13    14    15    1
    14    15    16    1
    15    16    17    1
    16    17    18    1
    17    18    19    1
    18    19    20    1
    19    20    21    1
    20    21    22    1
    21    10    11   ar
    22     4     5   ar
    23     5     6   ar
    24    24    27    1
    25    27    28   ar
    26    28    29   ar
    27    29    30   ar
    28    30    31    1
    29    30    32   ar
    30    32    33   ar
    31     6     1   ar
    32    33    27   ar
    33    11     7   ar
    34    22    17    1
    35    25    26    1
    36    12    13    1
@<TRIPOS>MOLECULE
*****
 33 36 0 0 0
SMALL
GASTEIGER

@<TRIPOS>ATOM
      1 C         139.4980  139.1230  162.9806 C.ar    1  UNL1        0.0505
      2 C         139.3617  137.9874  163.9509 C.ar    1  UNL1        0.0148
      3 C         139.2148  138.2673  165.4172 C.ar    1  UNL1        0.0060
      4 C         139.2042  139.6829  165.9131 C.ar    1  UNL1        0.0553
      5 C         139.3405  140.8186  164.9428 C.ar    1  UNL1        0.0060
      6 C         139.4874  140.5386  163.4765 C.ar    1  UNL1        0.0148
      7 C         139.0573  139.9628  167.3795 C.ar    1  UNL1        0.2512
      8 N         138.2613  139.1497  168.3569 N.ar    1  UNL1       -0.1058
      9 N         138.3925  139.7892  169.7073 N.ar    1  UNL1       -0.0923
     10 C         139.2697  140.9977  169.5645 C.ar    1  UNL1        0.3086
     11 O         139.6805  141.1049  168.1259 O.2     1  UNL1       -0.4048
     12 N         139.6665  141.9344  170.6669 N.pl3   1  UNL1       -0.2871
     13 H         138.9891  142.5073  171.0937 H       1  UNL1        0.1512
     14 C         141.0952  141.9981  171.1191 C.3     1  UNL1        0.0925
     15 C         141.8974  140.7373  171.2502 C.3     1  UNL1        0.0386
     16 C         143.1174  140.5331  170.4019 C.3     1  UNL1        0.0738
     17 N         143.0003  140.5368  168.9065 N.3     1  UNL1       -0.2726
     18 C         143.0902  141.8291  168.1503 C.3     1  UNL1        0.0721
     19 C         142.9731  141.8329  166.6550 C.3     1  UNL1        0.0174
     20 C         142.7662  140.5442  165.9157 C.3     1  UNL1        0.0029
     21 C         142.6763  139.2519  166.6718 C.3     1  UNL1        0.0174
     22 C         142.7934  139.2482  168.1672 C.3     1  UNL1        0.0721
     23 O         142.2291  138.8080  161.7798 O.2     1  UNL1       -0.2698
     24 C         141.0105  138.6856  160.9139 C.2     1  UNL1        0.2495
     25 N         139.6449  138.8431  161.5142 N.am    1  UNL1       -0.2804
     26 H         138.8451  138.7628  160.9459 H       1  UNL1        0.1552
     27 C         141.1574  138.4057  159.4475 C.ar    1  UNL1        0.0538
     28 C         142.4846  137.9780  158.8949 C.ar    1  UNL1        0.0068
     29 C         142.6315  137.6982  157.4286 C.ar    1  UNL1        0.0298
     30 C         141.4511  137.8460  156.5149 C.ar    1  UNL1        0.1401
     31 F         141.5980  137.5661  155.0486 F       1  UNL1       -0.2042
     32 C         140.1239  138.2737  157.0675 C.ar    1  UNL1        0.0298
     33 C         139.9770  138.5536  158.5338 C.ar    1  UNL1        0.0068
@<TRIPOS>BOND
     1    23    24    2
     2    24    25   am
     3    25     1    1
     4     1     2   ar
     5     2     3   ar
     6     3     4   ar
     7     4     7    1
     8     7     8   ar
     9     8     9   ar
    10     9    10   ar
    11    10    12    1
    12    12    14    1
    13    14    15    1
    14    15    16    1
    15    16    17    1
    16    17    18    1
    17    18    19    1
    18    19    20    1
    19    20    21    1
    20    21    22    1
    21    10    11   ar
    22     4     5   ar
    23     5     6   ar
    24    24    27    1
    25    27    28   ar
    26    28    29   ar
    27    29    30   ar
    28    30    31    1
    29    30    32   ar
    30    32    33   ar
    31     6     1   ar
    32    33    27   ar
    33    11     7   ar
    34    22    17    1
    35    25    26    1
    36    12    13    1
@<TRIPOS>MOLECULE
*****
 33 36 0 0 0
SMALL
GASTEIGER

@<TRIPOS>ATOM
      1 C         139.3508  141.9097  161.6489 C.ar    1  UNL1        0.0505
      2 C         138.0635  142.1390  162.3839 C.ar    1  UNL1        0.0148
      3 C         137.8695  141.5617  163.7547 C.ar    1  UNL1        0.0060
      4 C         138.9628  140.7552  164.3905 C.ar    1  UNL1        0.0553
      5 C         140.2500  140.5259  163.6555 C.ar    1  UNL1        0.0060
      6 C         140.4440  141.1031  162.2847 C.ar    1  UNL1        0.0148
      7 C         138.7687  140.1779  165.7613 C.ar    1  UNL1        0.2512
      8 N         137.8124  139.0824  166.1294 N.ar    1  UNL1       -0.1058
      9 N         137.9495  138.8222  167.6003 N.ar    1  UNL1       -0.0923
     10 C         138.9906  139.7569  168.1413 C.ar    1  UNL1        0.3086
     11 O         139.4968  140.5947  167.0047 O.2     1  UNL1       -0.4048
     12 N         139.4455  139.8392  169.5683 N.pl3   1  UNL1       -0.2871
     13 H         139.4674  139.0279  170.1255 H       1  UNL1        0.1512
     14 C         139.8669  141.1577  170.1462 C.3     1  UNL1        0.0925
     15 C         141.1647  141.2702  170.8898 C.3     1  UNL1        0.0386
     16 C         142.4184  140.6935  170.3018 C.3     1  UNL1        0.0738
     17 N         142.6294  140.7153  168.8170 N.3     1  UNL1       -0.2726
     18 C         142.6737  139.4290  168.0466 C.3     1  UNL1        0.0721
     19 C         142.8847  139.4508  166.5618 C.3     1  UNL1        0.0174
     20 C         143.0513  140.7590  165.8471 C.3     1  UNL1        0.0029
     21 C         143.0070  142.0454  166.6173 C.3     1  UNL1        0.0174
     22 C         142.7960  142.0235  168.1023 C.3     1  UNL1        0.0721
     23 O         140.7519  144.5412  161.3140 O.2     1  UNL1       -0.2698
     24 C         140.2454  143.8027  160.1106 C.2     1  UNL1        0.2495
     25 N         139.5448  142.4870  160.2781 N.am    1  UNL1       -0.2804
     26 H         139.2124  142.0023  159.4883 H       1  UNL1        0.1552
     27 C         140.4394  144.3800  158.7398 C.ar    1  UNL1        0.0538
     28 C         141.5152  145.3974  158.4998 C.ar    1  UNL1        0.0068
     29 C         141.7092  145.9746  157.1290 C.ar    1  UNL1        0.0298
     30 C         140.8275  145.5344  155.9982 C.ar    1  UNL1        0.1401
     31 F         141.0215  146.1117  154.6273 F       1  UNL1       -0.2042
     32 C         139.7517  144.5170  156.2381 C.ar    1  UNL1        0.0298
     33 C         139.5577  143.9398  157.6089 C.ar    1  UNL1        0.0068
@<TRIPOS>BOND
     1    23    24    2
     2    24    25   am
     3    25     1    1
     4     1     2   ar
     5     2     3   ar
     6     3     4   ar
     7     4     7    1
     8     7     8   ar
     9     8     9   ar
    10     9    10   ar
    11    10    12    1
    12    12    14    1
    13    14    15    1
    14    15    16    1
    15    16    17    1
    16    17    18    1
    17    18    19    1
    18    19    20    1
    19    20    21    1
    20    21    22    1
    21    10    11   ar
    22     4     5   ar
    23     5     6   ar
    24    24    27    1
    25    27    28   ar
    26    28    29   ar
    27    29    30   ar
    28    30    31    1
    29    30    32   ar
    30    32    33   ar
    31     6     1   ar
    32    33    27   ar
    33    11     7   ar
    34    22    17    1
    35    25    26    1
    36    12    13    1
@<TRIPOS>MOLECULE
*****
 33 36 0 0 0
SMALL
GASTEIGER

@<TRIPOS>ATOM
      1 C         141.6421  139.1367  162.0192 C.ar    1  UNL1        0.0505
      2 C         142.8232  138.2289  161.8443 C.ar    1  UNL1        0.0148
      3 C         143.3127  137.8920  160.4670 C.ar    1  UNL1        0.0060
      4 C         142.6210  138.4629  159.2647 C.ar    1  UNL1        0.0553
      5 C         141.4399  139.3708  159.4396 C.ar    1  UNL1        0.0060
      6 C         140.9504  139.7077  160.8169 C.ar    1  UNL1        0.0148
      7 C         143.1105  138.1260  157.8874 C.ar    1  UNL1        0.2512
      8 N         143.8344  139.0540  156.9574 N.ar    1  UNL1       -0.1058
      9 N         144.1334  138.3035  155.6936 N.ar    1  UNL1       -0.0923
     10 C         143.5943  136.9116  155.8425 C.ar    1  UNL1        0.3086
     11 O         142.9622  136.8019  157.1983 O.2     1  UNL1       -0.4048
     12 N         143.6735  135.8209  154.8157 N.pl3   1  UNL1       -0.2871
     13 H         144.5468  135.5528  154.4488 H       1  UNL1        0.1512
     14 C         142.4221  135.1388  154.3481 C.3     1  UNL1        0.0925
     15 C         141.5191  134.4666  155.3395 C.3     1  UNL1        0.0386
     16 C         141.6066  132.9839  155.5487 C.3     1  UNL1        0.0738
     17 N         142.7314  132.4053  156.3548 N.3     1  UNL1       -0.2726
     18 C         143.6546  133.3122  157.1132 C.3     1  UNL1        0.0721
     19 C         144.7794  132.7337  157.9193 C.3     1  UNL1        0.0174
     20 C         144.9812  131.2481  157.9671 C.3     1  UNL1        0.0029
     21 C         144.0581  130.3411  157.2087 C.3     1  UNL1        0.0174
     22 C         142.9332  130.9197  156.4025 C.3     1  UNL1        0.0721
     23 O         139.5944  137.3952  163.3512 O.2     1  UNL1       -0.2698
     24 C         140.1287  138.6029  164.0625 C.2     1  UNL1        0.2495
     25 N         141.1525  139.4737  163.3965 N.am    1  UNL1       -0.2804
     26 H         141.5032  140.2664  163.8633 H       1  UNL1        0.1552
     27 C         139.6392  138.9399  165.4398 C.ar    1  UNL1        0.0538
     28 C         140.4928  139.7625  166.3588 C.ar    1  UNL1        0.0068
     29 C         140.0033  140.0994  167.7360 C.ar    1  UNL1        0.0298
     30 C         138.6601  139.6137  168.1942 C.ar    1  UNL1        0.1401
     31 F         138.1706  139.9506  169.5716 F       1  UNL1       -0.2042
     32 C         137.8065  138.7910  167.2753 C.ar    1  UNL1        0.0298
     33 C         138.2961  138.4541  165.8981 C.ar    1  UNL1        0.0068
@<TRIPOS>BOND
     1    23    24    2
     2    24    25   am
     3    25     1    1
     4     1     2   ar
     5     2     3   ar
     6     3     4   ar
     7     4     7    1
     8     7     8   ar
     9     8     9   ar
    10     9    10   ar
    11    10    12    1
    12    12    14    1
    13    14    15    1
    14    15    16    1
    15    16    17    1
    16    17    18    1
    17    18    19    1
    18    19    20    1
    19    20    21    1
    20    21    22    1
    21    10    11   ar
    22     4     5   ar
    23     5     6   ar
    24    24    27    1
    25    27    28   ar
    26    28    29   ar
    27    29    30   ar
    28    30    31    1
    29    30    32   ar
    30    32    33   ar
    31     6     1   ar
    32    33    27   ar
    33    11     7   ar
    34    22    17    1
    35    25    26    1
    36    12    13    1
@<TRIPOS>MOLECULE
*****
 33 36 0 0 0
SMALL
GASTEIGER

@<TRIPOS>ATOM
      1 C         141.0887  143.9639  163.8840 C.ar    1  UNL1        0.0505
      2 C         142.0389  143.3858  162.8777 C.ar    1  UNL1        0.0148
      3 C         142.0002  143.8554  161.4536 C.ar    1  UNL1        0.0060
      4 C         141.0112  144.9030  161.0359 C.ar    1  UNL1        0.0553
      5 C         140.0610  145.4811  162.0423 C.ar    1  UNL1        0.0060
      6 C         140.0997  145.0116  163.4663 C.ar    1  UNL1        0.0148
      7 C         140.9726  145.3725  159.6117 C.ar    1  UNL1        0.2512
      8 N         142.1332  145.4040  158.6620 N.ar    1  UNL1       -0.1058
      9 N         141.6445  145.9439  157.3506 N.ar    1  UNL1       -0.0923
     10 C         140.1818  146.2461  157.4899 C.ar    1  UNL1        0.3086
     11 O         139.7666  145.8929  158.8874 O.2     1  UNL1       -0.4048
     12 N         139.2908  146.8035  156.4197 N.pl3   1  UNL1       -0.2871
     13 H         138.8807  147.6913  156.5336 H       1  UNL1        0.1512
     14 C         139.0247  146.0085  155.1759 C.3     1  UNL1        0.0925
     15 C         137.9435  144.9688  155.1673 C.3     1  UNL1        0.0386
     16 C         138.3009  143.5144  155.2509 C.3     1  UNL1        0.0738
     17 N         138.9193  142.9647  156.5019 N.3     1  UNL1       -0.2726
     18 C         140.3743  142.6006  156.5220 C.3     1  UNL1        0.0721
     19 C         140.9927  142.0509  157.7731 C.3     1  UNL1        0.0174
     20 C         140.1562  141.8653  159.0042 C.3     1  UNL1        0.0029
     21 C         138.7012  142.2293  158.9842 C.3     1  UNL1        0.0174
     22 C         138.0828  142.7791  157.7331 C.3     1  UNL1        0.0721
     23 O         139.2319  141.7923  164.7985 O.2     1  UNL1       -0.2698
     24 C         140.1990  142.4086  165.7654 C.2     1  UNL1        0.2495
     25 N         141.1273  143.4944  165.3082 N.am    1  UNL1       -0.2804
     26 H         141.7621  143.8989  165.9428 H       1  UNL1        0.1552
     27 C         140.2376  141.9391  167.1895 C.ar    1  UNL1        0.0538
     28 C         139.8752  140.5221  167.5222 C.ar    1  UNL1        0.0068
     29 C         139.9139  140.0526  168.9462 C.ar    1  UNL1        0.0298
     30 C         140.3150  141.0002  170.0377 C.ar    1  UNL1        0.1401
     31 F         140.3537  140.5306  171.4618 F       1  UNL1       -0.2042
     32 C         140.6774  142.4172  169.7051 C.ar    1  UNL1        0.0298
     33 C         140.6387  142.8866  168.2810 C.ar    1  UNL1        0.0068
@<TRIPOS>BOND
     1    23    24    2
     2    24    25   am
     3    25     1    1
     4     1     2   ar
     5     2     3   ar
     6     3     4   ar
     7     4     7    1
     8     7     8   ar
     9     8     9   ar
    10     9    10   ar
    11    10    12    1
    12    12    14    1
    13    14    15    1
    14    15    16    1
    15    16    17    1
    16    17    18    1
    17    18    19    1
    18    19    20    1
    19    20    21    1
    20    21    22    1
    21    10    11   ar
    22     4     5   ar
    23     5     6   ar
    24    24    27    1
    25    27    28   ar
    26    28    29   ar
    27    29    30   ar
    28    30    31    1
    29    30    32   ar
    30    32    33   ar
    31     6     1   ar
    32    33    27   ar
    33    11     7   ar
    34    22    17    1
    35    25    26    1
    36    12    13    1
@<TRIPOS>MOLECULE
*****
 33 36 0 0 0
SMALL
GASTEIGER

@<TRIPOS>ATOM
      1 C         142.5325  138.5277  158.5918 C.ar    1  UNL1        0.0505
      2 C         142.9565  139.8521  158.0295 C.ar    1  UNL1        0.0148
      3 C         142.5184  141.1237  158.6936 C.ar    1  UNL1        0.0060
      4 C         141.6563  141.0709  159.9200 C.ar    1  UNL1        0.0553
      5 C         141.2324  139.7465  160.4823 C.ar    1  UNL1        0.0060
      6 C         141.6705  138.4749  159.8182 C.ar    1  UNL1        0.0148
      7 C         141.2182  142.3426  160.5841 C.ar    1  UNL1        0.2512
      8 N         142.1143  143.4643  161.0186 N.ar    1  UNL1       -0.1058
      9 N         141.2571  144.5308  161.6333 N.ar    1  UNL1       -0.0923
     10 C         139.8312  144.0681  161.5787 C.ar    1  UNL1        0.3086
     11 O         139.8073  142.7158  160.9302 O.2     1  UNL1       -0.4048
     12 N         138.6388  144.8250  162.0838 N.pl3   1  UNL1       -0.2871
     13 H         138.3668  145.6641  161.6464 H       1  UNL1        0.1512
     14 C         137.8606  144.3035  163.2553 C.3     1  UNL1        0.0925
     15 C         138.0920  142.9054  163.7470 C.3     1  UNL1        0.0386
     16 C         137.2887  141.7701  163.1850 C.3     1  UNL1        0.0738
     17 N         137.8370  140.3744  163.2191 N.3     1  UNL1       -0.2726
     18 C         138.3953  139.8188  164.4957 C.3     1  UNL1        0.0721
     19 C         138.9435  138.4231  164.5298 C.3     1  UNL1        0.0174
     20 C         138.9335  137.5828  163.2873 C.3     1  UNL1        0.0029
     21 C         138.3752  138.1383  162.0107 C.3     1  UNL1        0.0174
     22 C         137.8269  139.5342  161.9766 C.3     1  UNL1        0.0721
     23 O         140.7202  137.1567  156.6333 O.2     1  UNL1       -0.2698
     24 C         142.0645  136.5705  156.9485 C.2     1  UNL1        0.2495
     25 N         142.9706  137.2560  157.9277 N.am    1  UNL1       -0.2804
     26 H         143.8529  136.8713  158.1346 H       1  UNL1        0.1552
     27 C         142.5026  135.2989  156.2844 C.ar    1  UNL1        0.0538
     28 C         141.8914  134.8857  154.9784 C.ar    1  UNL1        0.0068
     29 C         142.3295  133.6140  154.3144 C.ar    1  UNL1        0.0298
     30 C         143.3788  132.7556  154.9564 C.ar    1  UNL1        0.1401
     31 F         143.8169  131.4839  154.2923 F       1  UNL1       -0.2042
     32 C         143.9899  133.1688  156.2624 C.ar    1  UNL1        0.0298
     33 C         143.5518  134.4404  156.9264 C.ar    1  UNL1        0.0068
@<TRIPOS>BOND
     1    23    24    2
     2    24    25   am
     3    25     1    1
     4     1     2   ar
     5     2     3   ar
     6     3     4   ar
     7     4     7    1
     8     7     8   ar
     9     8     9   ar
    10     9    10   ar
    11    10    12    1
    12    12    14    1
    13    14    15    1
    14    15    16    1
    15    16    17    1
    16    17    18    1
    17    18    19    1
    18    19    20    1
    19    20    21    1
    20    21    22    1
    21    10    11   ar
    22     4     5   ar
    23     5     6   ar
    24    24    27    1
    25    27    28   ar
    26    28    29   ar
    27    29    30   ar
    28    30    31    1
    29    30    32   ar
    30    32    33   ar
    31     6     1   ar
    32    33    27   ar
    33    11     7   ar
    34    22    17    1
    35    25    26    1
    36    12    13    1
@<TRIPOS>MOLECULE
*****
 33 36 0 0 0
SMALL
GASTEIGER

@<TRIPOS>ATOM
      1 C         141.9894  138.6004  163.3979 C.ar    1  UNL1        0.0505
      2 C         140.8615  138.4407  162.4221 C.ar    1  UNL1        0.0148
      3 C         141.1405  138.4309  160.9483 C.ar    1  UNL1        0.0060
      4 C         142.5475  138.5809  160.4504 C.ar    1  UNL1        0.0553
      5 C         143.6754  138.7407  161.4262 C.ar    1  UNL1        0.0060
      6 C         143.3963  138.7504  162.9000 C.ar    1  UNL1        0.0148
      7 C         142.8265  138.5711  158.9766 C.ar    1  UNL1        0.2512
      8 N         143.9354  139.3069  158.2843 N.ar    1  UNL1       -0.1058
      9 N         143.8399  139.0144  156.8162 N.ar    1  UNL1       -0.0923
     10 C         142.6721  138.0979  156.6011 C.ar    1  UNL1        0.3086
     11 O         142.0458  137.8239  157.9363 O.2     1  UNL1       -0.4048
     12 N         142.2114  137.5513  155.2824 N.pl3   1  UNL1       -0.2871
     13 H         142.5847  137.9080  154.4442 H       1  UNL1        0.1512
     14 C         141.1819  136.4611  155.2408 C.3     1  UNL1        0.0925
     15 C         141.5487  135.0669  155.6552 C.3     1  UNL1        0.0386
     16 C         142.7431  134.3935  155.0470 C.3     1  UNL1        0.0738
     17 N         143.5649  133.4419  155.8649 N.3     1  UNL1       -0.2726
     18 C         143.9247  132.0948  155.3118 C.3     1  UNL1        0.0721
     19 C         144.7465  131.1433  156.1296 C.3     1  UNL1        0.0174
     20 C         145.2087  131.5387  157.5008 C.3     1  UNL1        0.0029
     21 C         144.8489  132.8858  158.0540 C.3     1  UNL1        0.0174
     22 C         144.0271  133.8374  157.2360 C.3     1  UNL1        0.0721
     23 O         141.4232  141.1914  164.8003 O.2     1  UNL1       -0.2698
     24 C         141.4273  139.9056  165.5729 C.2     1  UNL1        0.2495
     25 N         141.7103  138.6102  164.8717 N.am    1  UNL1       -0.2804
     26 H         141.7130  137.7663  165.3788 H       1  UNL1        0.1552
     27 C         141.1482  139.9154  167.0467 C.ar    1  UNL1        0.0538
     28 C         142.2498  139.6186  168.0206 C.ar    1  UNL1        0.0068
     29 C         141.9707  139.6283  169.4943 C.ar    1  UNL1        0.0298
     30 C         140.5901  139.9350  169.9942 C.ar    1  UNL1        0.1401
     31 F         140.3110  139.9447  171.4681 F       1  UNL1       -0.2042
     32 C         139.4885  140.2318  169.0204 C.ar    1  UNL1        0.0298
     33 C         139.7676  140.2220  167.5466 C.ar    1  UNL1        0.0068
@<TRIPOS>BOND
     1    23    24    2
     2    24    25   am
     3    25     1    1
     4     1     2   ar
     5     2     3   ar
     6     3     4   ar
     7     4     7    1
     8     7     8   ar
     9     8     9   ar
    10     9    10   ar
    11    10    12    1
    12    12    14    1
    13    14    15    1
    14    15    16    1
    15    16    17    1
    16    17    18    1
    17    18    19    1
    18    19    20    1
    19    20    21    1
    20    21    22    1
    21    10    11   ar
    22     4     5   ar
    23     5     6   ar
    24    24    27    1
    25    27    28   ar
    26    28    29   ar
    27    29    30   ar
    28    30    31    1
    29    30    32   ar
    30    32    33   ar
    31     6     1   ar
    32    33    27   ar
    33    11     7   ar
    34    22    17    1
    35    25    26    1
    36    12    13    1
@<TRIPOS>MOLECULE
*****
 33 36 0 0 0
SMALL
GASTEIGER

@<TRIPOS>ATOM
      1 C         143.4815  141.7961  169.2239 C.ar    1  UNL1        0.0505
      2 C         143.0138  142.2473  167.8720 C.ar    1  UNL1        0.0148
      3 C         141.9121  141.5064  167.1738 C.ar    1  UNL1        0.0060
      4 C         141.2782  140.3144  167.8275 C.ar    1  UNL1        0.0553
      5 C         141.7459  139.8633  169.1793 C.ar    1  UNL1        0.0060
      6 C         142.8475  140.6041  169.8776 C.ar    1  UNL1        0.0148
      7 C         140.1765  139.5736  167.1292 C.ar    1  UNL1        0.2512
      8 N         138.7772  139.3904  167.6373 N.ar    1  UNL1       -0.1058
      9 N         138.0166  138.5895  166.6224 N.ar    1  UNL1       -0.0923
     10 C         138.9459  138.2777  165.4870 C.ar    1  UNL1        0.3086
     11 O         140.2808  138.8859  165.8002 O.2     1  UNL1       -0.4048
     12 N         138.6009  137.4951  164.2547 N.pl3   1  UNL1       -0.2871
     13 H         138.4377  136.5262  164.3165 H       1  UNL1        0.1512
     14 C         138.5045  138.1887  162.9282 C.3     1  UNL1        0.0925
     15 C         138.8178  139.6518  162.8224 C.3     1  UNL1        0.0386
     16 C         137.7674  140.6697  163.1549 C.3     1  UNL1        0.0738
     17 N         138.1696  142.0439  163.6017 N.3     1  UNL1       -0.2726
     18 C         138.9175  142.2252  164.8893 C.3     1  UNL1        0.0721
     19 C         139.3196  143.5994  165.3360 C.3     1  UNL1        0.0174
     20 C         138.9739  144.7925  164.4953 C.3     1  UNL1        0.0029
     21 C         138.2260  144.6113  163.2077 C.3     1  UNL1        0.0174
     22 C         137.8238  143.2370  162.7610 C.3     1  UNL1        0.0721
     23 O         142.8506  144.2325  170.8567 O.2     1  UNL1       -0.2698
     24 C         144.2677  143.7551  170.7386 C.2     1  UNL1        0.2495
     25 N         144.5831  142.5369  169.9222 N.am    1  UNL1       -0.2804
     26 H         145.5132  142.2236  169.8447 H       1  UNL1        0.1552
     27 C         145.3694  144.4959  171.4369 C.ar    1  UNL1        0.0538
     28 C         145.0388  145.5388  172.4631 C.ar    1  UNL1        0.0068
     29 C         146.1405  146.2796  173.1613 C.ar    1  UNL1        0.0298
     30 C         147.5727  145.9775  172.8333 C.ar    1  UNL1        0.1401
     31 F         148.6744  146.7183  173.5316 F       1  UNL1       -0.2042
     32 C         147.9032  144.9346  171.8071 C.ar    1  UNL1        0.0298
     33 C         146.8016  144.1939  171.1089 C.ar    1  UNL1        0.0068
@<TRIPOS>BOND
     1    23    24    2
     2    24    25   am
     3    25     1    1
     4     1     2   ar
     5     2     3   ar
     6     3     4   ar
     7     4     7    1
     8     7     8   ar
     9     8     9   ar
    10     9    10   ar
    11    10    12    1
    12    12    14    1
    13    14    15    1
    14    15    16    1
    15    16    17    1
    16    17    18    1
    17    18    19    1
    18    19    20    1
    19    20    21    1
    20    21    22    1
    21    10    11   ar
    22     4     5   ar
    23     5     6   ar
    24    24    27    1
    25    27    28   ar
    26    28    29   ar
    27    29    30   ar
    28    30    31    1
    29    30    32   ar
    30    32    33   ar
    31     6     1   ar
    32    33    27   ar
    33    11     7   ar
    34    22    17    1
    35    25    26    1
    36    12    13    1
@<TRIPOS>MOLECULE
*****
 33 36 0 0 0
SMALL
GASTEIGER

@<TRIPOS>ATOM
      1 C         142.7539  137.9994  158.1489 C.ar    1  UNL1        0.0505
      2 C         143.0144  137.6766  159.5903 C.ar    1  UNL1        0.0148
      3 C         143.4335  138.7613  160.5379 C.ar    1  UNL1        0.0060
      4 C         143.5922  140.1687  160.0439 C.ar    1  UNL1        0.0553
      5 C         143.3317  140.4915  158.6024 C.ar    1  UNL1        0.0060
      6 C         142.9126  139.4069  157.6549 C.ar    1  UNL1        0.0148
      7 C         144.0113  141.2534  160.9915 C.ar    1  UNL1        0.2512
      8 N         145.0092  141.1160  162.1030 N.ar    1  UNL1       -0.1058
      9 N         145.1208  142.4435  162.7924 N.ar    1  UNL1       -0.0923
     10 C         144.1918  143.4013  162.1071 C.ar    1  UNL1        0.3086
     11 O         143.5061  142.6657  160.9941 O.2     1  UNL1       -0.4048
     12 N         143.9849  144.8417  162.4709 N.pl3   1  UNL1       -0.2871
     13 H         144.3546  145.5521  161.8982 H       1  UNL1        0.1512
     14 C         143.2146  145.1998  163.7071 C.3     1  UNL1        0.0925
     15 C         141.7180  145.0979  163.7142 C.3     1  UNL1        0.0386
     16 C         141.0435  144.0201  164.5098 C.3     1  UNL1        0.0738
     17 N         141.6249  142.6379  164.5442 N.3     1  UNL1       -0.2726
     18 C         142.6654  142.2870  165.5661 C.3     1  UNL1        0.0721
     19 C         143.2469  140.9048  165.6005 C.3     1  UNL1        0.0174
     20 C         142.7879  139.8733  164.6129 C.3     1  UNL1        0.0029
     21 C         141.7475  140.2240  163.5910 C.3     1  UNL1        0.0174
     22 C         141.1660  141.6063  163.5566 C.3     1  UNL1        0.0721
     23 O         144.5423  137.2271  155.8673 O.2     1  UNL1       -0.2698
     24 C         143.2290  136.5286  156.0605 C.2     1  UNL1        0.2495
     25 N         142.3348  136.9148  157.2012 N.am    1  UNL1       -0.2804
     26 H         141.4728  136.4563  157.3280 H       1  UNL1        0.1552
     27 C         142.8098  135.4440  155.1129 C.ar    1  UNL1        0.0538
     28 C         142.9936  134.0044  155.4921 C.ar    1  UNL1        0.0068
     29 C         142.5745  132.9198  154.5445 C.ar    1  UNL1        0.0298
     30 C         141.9716  133.2748  153.2177 C.ar    1  UNL1        0.1401
     31 F         141.5524  132.1902  152.2701 F       1  UNL1       -0.2042
     32 C         141.7877  134.7144  152.8385 C.ar    1  UNL1        0.0298
     33 C         142.2069  135.7989  153.7861 C.ar    1  UNL1        0.0068
@<TRIPOS>BOND
     1    23    24    2
     2    24    25   am
     3    25     1    1
     4     1     2   ar
     5     2     3   ar
     6     3     4   ar
     7     4     7    1
     8     7     8   ar
     9     8     9   ar
    10     9    10   ar
    11    10    12    1
    12    12    14    1
    13    14    15    1
    14    15    16    1
    15    16    17    1
    16    17    18    1
    17    18    19    1
    18    19    20    1
    19    20    21    1
    20    21    22    1
    21    10    11   ar
    22     4     5   ar
    23     5     6   ar
    24    24    27    1
    25    27    28   ar
    26    28    29   ar
    27    29    30   ar
    28    30    31    1
    29    30    32   ar
    30    32    33   ar
    31     6     1   ar
    32    33    27   ar
    33    11     7   ar
    34    22    17    1
    35    25    26    1
    36    12    13    1
