@<TRIPOS>MOLECULE
*****
 23 25 0 0 0
SMALL
GASTEIGER

@<TRIPOS>ATOM
      1 C         138.6438  142.4519  164.5695 C.ar    1  UNL1        0.1694
      2 N         138.1050  141.6735  163.4060 N.ar    1  UNL1       -0.1477
      3 N         138.7373  140.3134  163.4254 N.ar    1  UNL1       -0.2137
      4 C         138.5866  139.1236  162.5246 C.ar    1  UNL1        0.0638
      5 C         137.6570  139.1857  161.3491 C.3     1  UNL1        0.0522
      6 C         139.3657  137.8715  162.7993 C.ar    1  UNL1        0.0296
      7 C         140.2953  137.8094  163.9749 C.ar    1  UNL1        0.0622
      8 C         141.0744  136.5572  164.2495 C.3     1  UNL1        0.0522
      9 N         140.4460  138.9992  164.8757 N.ar    1  UNL1       -0.2297
     10 C         139.6669  140.2512  164.6010 C.ar    1  UNL1        0.1835
     11 C         139.6091  141.5729  165.3080 C.ar    1  UNL1        0.1787
     12 C         138.9390  145.0100  164.2251 C.3     1  UNL1        0.1097
     13 N         138.2810  143.8617  164.9310 N.pl3   1  UNL1       -0.3142
     14 H         137.6110  144.0334  165.6316 H       1  UNL1        0.1483
     15 S         140.3812  141.9494  166.5377 S.O2    1  UNL1        0.0331
     16 O         141.1853  142.9274  165.7334 O.2     1  UNL1       -0.1641
     17 O         139.5771  140.9714  167.3420 O.2     1  UNL1       -0.1641
     18 C         141.1533  142.3260  167.7674 C.ar    1  UNL1        0.1105
     19 C         140.4892  143.1126  168.8583 C.ar    1  UNL1        0.0187
     20 C         141.2612  143.4892  170.0880 C.ar    1  UNL1        0.0013
     21 C         142.6974  143.0792  170.2268 C.ar    1  UNL1        0.0001
     22 C         143.3615  142.2925  169.1358 C.ar    1  UNL1        0.0013
     23 C         142.5895  141.9159  167.9062 C.ar    1  UNL1        0.0187
@<TRIPOS>BOND
     1    12    13    1
     2    13     1    1
     3     1     2   ar
     4     2     3   ar
     5     3     4   ar
     6     4     5    1
     7     4     6   ar
     8     6     7   ar
     9     7     8    1
    10     7     9   ar
    11     9    10   ar
    12    10    11   ar
    13    11    15    1
    14    15    16    2
    15    15    17    2
    16    15    18    1
    17    18    19   ar
    18    19    20   ar
    19    20    21   ar
    20    21    22   ar
    21    22    23   ar
    22    11     1   ar
    23    23    18   ar
    24    10     3   ar
    25    13    14    1
@<TRIPOS>MOLECULE
*****
 23 25 0 0 0
SMALL
GASTEIGER

@<TRIPOS>ATOM
      1 C         140.0042  139.0666  164.0909 C.ar    1  UNL1        0.1694
      2 N         140.6940  138.6981  162.8109 N.ar    1  UNL1       -0.1477
      3 N         142.0406  139.3588  162.8031 N.ar    1  UNL1       -0.2137
      4 C         143.1554  139.3535  161.7995 C.ar    1  UNL1        0.0638
      5 C         143.0129  138.5766  160.5243 C.3     1  UNL1        0.0522
      6 C         144.4127  140.1250  162.0712 C.ar    1  UNL1        0.0296
      7 C         144.5552  140.9018  163.3465 C.ar    1  UNL1        0.0622
      8 C         145.8127  141.6733  163.6181 C.3     1  UNL1        0.0522
      9 N         143.4404  140.9072  164.3500 N.ar    1  UNL1       -0.2297
     10 C         142.1831  140.1357  164.0783 C.ar    1  UNL1        0.1835
     11 C         140.9246  139.9551  164.8742 C.ar    1  UNL1        0.1787
     12 C         138.4785  137.6029  165.6008 C.3     1  UNL1        0.1097
     13 N         138.6346  138.6242  164.5134 N.pl3   1  UNL1       -0.3142
     14 H         137.8381  139.0043  164.0771 H       1  UNL1        0.1483
     15 S         140.6369  140.5572  166.2176 S.O2    1  UNL1        0.0331
     16 O         139.6610  141.5041  165.5842 O.2     1  UNL1       -0.1641
     17 O         141.6127  139.6104  166.8509 O.2     1  UNL1       -0.1641
     18 C         140.3492  141.1594  167.5609 C.ar    1  UNL1        0.1105
     19 C         140.7507  142.5756  167.8495 C.ar    1  UNL1        0.0187
     20 C         140.4630  143.1779  169.1928 C.ar    1  UNL1        0.0013
     21 C         139.7738  142.3640  170.2476 C.ar    1  UNL1        0.0001
     22 C         139.3723  140.9478  169.9590 C.ar    1  UNL1        0.0013
     23 C         139.6600  140.3456  168.6158 C.ar    1  UNL1        0.0187
@<TRIPOS>BOND
     1    12    13    1
     2    13     1    1
     3     1     2   ar
     4     2     3   ar
     5     3     4   ar
     6     4     5    1
     7     4     6   ar
     8     6     7   ar
     9     7     8    1
    10     7     9   ar
    11     9    10   ar
    12    10    11   ar
    13    11    15    1
    14    15    16    2
    15    15    17    2
    16    15    18    1
    17    18    19   ar
    18    19    20   ar
    19    20    21   ar
    20    21    22   ar
    21    22    23   ar
    22    11     1   ar
    23    23    18   ar
    24    10     3   ar
    25    13    14    1
@<TRIPOS>MOLECULE
*****
 23 25 0 0 0
SMALL
GASTEIGER

@<TRIPOS>ATOM
      1 C         143.6810  142.6394  164.1254 C.ar    1  UNL1        0.1694
      2 N         143.1587  143.3871  162.9345 N.ar    1  UNL1       -0.1477
      3 N         141.7464  143.7984  163.2283 N.ar    1  UNL1       -0.2137
      4 C         140.7343  144.5586  162.4234 C.ar    1  UNL1        0.0638
      5 C         141.0849  145.0521  161.0510 C.3     1  UNL1        0.0522
      6 C         139.3717  144.8253  162.9909 C.ar    1  UNL1        0.0296
      7 C         139.0212  144.3318  164.3634 C.ar    1  UNL1        0.0622
      8 C         137.6585  144.5985  164.9309 C.3     1  UNL1        0.0522
      9 N         140.0332  143.5716  165.1683 N.ar    1  UNL1       -0.2297
     10 C         141.3958  143.3050  164.6007 C.ar    1  UNL1        0.1835
     11 C         142.5914  142.5886  165.1551 C.ar    1  UNL1        0.1787
     12 C         145.3045  140.6328  163.8296 C.3     1  UNL1        0.1097
     13 N         145.0520  142.0465  164.2624 N.pl3   1  UNL1       -0.3142
     14 H         145.7861  142.5854  164.6365 H       1  UNL1        0.1483
     15 S         142.6817  141.9361  166.5028 S.O2    1  UNL1        0.0331
     16 O         143.7309  142.9268  166.9122 O.2     1  UNL1       -0.1641
     17 O         141.6325  140.9455  166.0934 O.2     1  UNL1       -0.1641
     18 C         142.7720  141.2836  167.8504 C.ar    1  UNL1        0.1105
     19 C         143.2067  142.0829  169.0430 C.ar    1  UNL1        0.0187
     20 C         143.2971  141.4305  170.3907 C.ar    1  UNL1        0.0013
     21 C         142.9527  139.9789  170.5458 C.ar    1  UNL1        0.0001
     22 C         142.5179  139.1796  169.3532 C.ar    1  UNL1        0.0013
     23 C         142.4276  139.8320  168.0056 C.ar    1  UNL1        0.0187
@<TRIPOS>BOND
     1    12    13    1
     2    13     1    1
     3     1     2   ar
     4     2     3   ar
     5     3     4   ar
     6     4     5    1
     7     4     6   ar
     8     6     7   ar
     9     7     8    1
    10     7     9   ar
    11     9    10   ar
    12    10    11   ar
    13    11    15    1
    14    15    16    2
    15    15    17    2
    16    15    18    1
    17    18    19   ar
    18    19    20   ar
    19    20    21   ar
    20    21    22   ar
    21    22    23   ar
    22    11     1   ar
    23    23    18   ar
    24    10     3   ar
    25    13    14    1
@<TRIPOS>MOLECULE
*****
 23 25 0 0 0
SMALL
GASTEIGER

@<TRIPOS>ATOM
      1 C         143.7281  139.3253  163.1658 C.ar    1  UNL1        0.1694
      2 N         143.5620  139.1011  161.6920 N.ar    1  UNL1       -0.1477
      3 N         142.1064  138.8611  161.4207 N.ar    1  UNL1       -0.2137
      4 C         141.3542  138.5833  160.1531 C.ar    1  UNL1        0.0638
      5 C         142.0877  138.5073  158.8469 C.3     1  UNL1        0.0522
      6 C         139.8683  138.3814  160.1917 C.ar    1  UNL1        0.0296
      7 C         139.1348  138.4574  161.4979 C.ar    1  UNL1        0.0622
      8 C         137.6488  138.2555  161.5364 C.3     1  UNL1        0.0522
      9 N         139.8870  138.7352  162.7655 N.ar    1  UNL1       -0.2297
     10 C         141.3728  138.9371  162.7269 C.ar    1  UNL1        0.1835
     11 C         142.3751  139.2240  163.8054 C.ar    1  UNL1        0.1787
     12 C         145.5188  141.0112  164.0031 C.3     1  UNL1        0.1097
     13 N         145.0203  139.6023  163.8754 N.pl3   1  UNL1       -0.3142
     14 H         145.5412  138.8593  164.2574 H       1  UNL1        0.1483
     15 S         142.0767  139.3818  165.2669 S.O2    1  UNL1        0.0331
     16 O         142.7261  138.0581  165.5425 O.2     1  UNL1       -0.1641
     17 O         141.4273  140.7055  164.9914 O.2     1  UNL1       -0.1641
     18 C         141.7783  139.5396  166.7285 C.ar    1  UNL1        0.1105
     19 C         140.4200  139.9963  167.1716 C.ar    1  UNL1        0.0187
     20 C         140.1216  140.1541  168.6331 C.ar    1  UNL1        0.0013
     21 C         141.1815  139.8551  169.6516 C.ar    1  UNL1        0.0001
     22 C         142.5398  139.3984  169.2084 C.ar    1  UNL1        0.0013
     23 C         142.8382  139.2406  167.7469 C.ar    1  UNL1        0.0187
@<TRIPOS>BOND
     1    12    13    1
     2    13     1    1
     3     1     2   ar
     4     2     3   ar
     5     3     4   ar
     6     4     5    1
     7     4     6   ar
     8     6     7   ar
     9     7     8    1
    10     7     9   ar
    11     9    10   ar
    12    10    11   ar
    13    11    15    1
    14    15    16    2
    15    15    17    2
    16    15    18    1
    17    18    19   ar
    18    19    20   ar
    19    20    21   ar
    20    21    22   ar
    21    22    23   ar
    22    11     1   ar
    23    23    18   ar
    24    10     3   ar
    25    13    14    1
@<TRIPOS>MOLECULE
*****
 23 25 0 0 0
SMALL
GASTEIGER

@<TRIPOS>ATOM
      1 C         141.8001  141.6494  163.7940 C.ar    1  UNL1        0.1694
      2 N         141.2503  140.7972  162.6888 N.ar    1  UNL1       -0.1477
      3 N         140.3871  139.7372  163.3064 N.ar    1  UNL1       -0.2137
      4 C         139.5883  138.6180  162.7070 C.ar    1  UNL1        0.0638
      5 C         139.5720  138.4209  161.2201 C.3     1  UNL1        0.0522
      6 C         138.8059  137.6960  163.5945 C.ar    1  UNL1        0.0296
      7 C         138.8222  137.8932  165.0814 C.ar    1  UNL1        0.0622
      8 C         138.0397  136.9711  165.9688 C.3     1  UNL1        0.0522
      9 N         139.6209  139.0124  165.6808 N.ar    1  UNL1       -0.2297
     10 C         140.4034  139.9344  164.7933 C.ar    1  UNL1        0.1835
     11 C         141.2766  141.1162  165.0946 C.ar    1  UNL1        0.1787
     12 C         144.1591  142.6149  163.2912 C.3     1  UNL1        0.1097
     13 N         142.7130  142.8280  163.6277 N.pl3   1  UNL1       -0.3142
     14 H         142.3630  143.7413  163.7394 H       1  UNL1        0.1483
     15 S         141.5742  141.6679  166.4574 S.O2    1  UNL1        0.0331
     16 O         140.1693  142.1842  166.5552 O.2     1  UNL1       -0.1641
     17 O         142.9791  141.1517  166.3596 O.2     1  UNL1       -0.1641
     18 C         141.8717  142.2197  167.8201 C.ar    1  UNL1        0.1105
     19 C         140.8034  142.9417  168.5865 C.ar    1  UNL1        0.0187
     20 C         141.1008  143.4935  169.9492 C.ar    1  UNL1        0.0013
     21 C         142.4666  143.3232  170.5457 C.ar    1  UNL1        0.0001
     22 C         143.5349  142.6011  169.7792 C.ar    1  UNL1        0.0013
     23 C         143.2375  142.0493  168.4166 C.ar    1  UNL1        0.0187
@<TRIPOS>BOND
     1    12    13    1
     2    13     1    1
     3     1     2   ar
     4     2     3   ar
     5     3     4   ar
     6     4     5    1
     7     4     6   ar
     8     6     7   ar
     9     7     8    1
    10     7     9   ar
    11     9    10   ar
    12    10    11   ar
    13    11    15    1
    14    15    16    2
    15    15    17    2
    16    15    18    1
    17    18    19   ar
    18    19    20   ar
    19    20    21   ar
    20    21    22   ar
    21    22    23   ar
    22    11     1   ar
    23    23    18   ar
    24    10     3   ar
    25    13    14    1
@<TRIPOS>MOLECULE
*****
 23 25 0 0 0
SMALL
GASTEIGER

@<TRIPOS>ATOM
      1 C         138.9236  139.7656  164.8709 C.ar    1  UNL1        0.1694
      2 N         138.8467  139.2106  163.4795 N.ar    1  UNL1       -0.1477
      3 N         140.1609  139.4687  162.8041 N.ar    1  UNL1       -0.2137
      4 C         140.6628  139.1455  161.4281 C.ar    1  UNL1        0.0638
      5 C         139.7736  138.4310  160.4540 C.3     1  UNL1        0.0522
      6 C         142.0539  139.5367  161.0261 C.ar    1  UNL1        0.0296
      7 C         142.9432  140.2513  162.0002 C.ar    1  UNL1        0.0622
      8 C         144.3343  140.6425  161.5981 C.3     1  UNL1        0.0522
      9 N         142.4413  140.5745  163.3762 N.ar    1  UNL1       -0.2297
     10 C         141.0501  140.1832  163.7782 C.ar    1  UNL1        0.1835
     11 C         140.2854  140.3667  165.0555 C.ar    1  UNL1        0.1787
     12 C         137.8646  138.6994  166.9903 C.3     1  UNL1        0.1097
     13 N         137.8306  139.7263  165.8975 N.pl3   1  UNL1       -0.3142
     14 H         137.0909  140.3745  165.8540 H       1  UNL1        0.1483
     15 S         140.7934  141.0341  166.2991 S.O2    1  UNL1        0.0331
     16 O         141.6653  139.8464  166.5804 O.2     1  UNL1       -0.1641
     17 O         139.9215  142.2217  166.0179 O.2     1  UNL1       -0.1641
     18 C         141.3014  141.7014  167.5428 C.ar    1  UNL1        0.1105
     19 C         140.4043  142.6159  168.3231 C.ar    1  UNL1        0.0187
     20 C         140.9122  143.2832  169.5667 C.ar    1  UNL1        0.0013
     21 C         142.3173  143.0362  170.0300 C.ar    1  UNL1        0.0001
     22 C         143.2145  142.1217  169.2496 C.ar    1  UNL1        0.0013
     23 C         142.7065  141.4544  168.0061 C.ar    1  UNL1        0.0187
@<TRIPOS>BOND
     1    12    13    1
     2    13     1    1
     3     1     2   ar
     4     2     3   ar
     5     3     4   ar
     6     4     5    1
     7     4     6   ar
     8     6     7   ar
     9     7     8    1
    10     7     9   ar
    11     9    10   ar
    12    10    11   ar
    13    11    15    1
    14    15    16    2
    15    15    17    2
    16    15    18    1
    17    18    19   ar
    18    19    20   ar
    19    20    21   ar
    20    21    22   ar
    21    22    23   ar
    22    11     1   ar
    23    23    18   ar
    24    10     3   ar
    25    13    14    1
@<TRIPOS>MOLECULE
*****
 23 25 0 0 0
SMALL
GASTEIGER

@<TRIPOS>ATOM
      1 C         142.3882  140.2758  165.7500 C.ar    1  UNL1        0.1694
      2 N         142.6741  139.5051  167.0046 N.ar    1  UNL1       -0.1477
      3 N         141.9759  140.1926  168.1403 N.ar    1  UNL1       -0.2137
      4 C         141.9007  139.8843  169.6064 C.ar    1  UNL1        0.0638
      5 C         142.6182  138.6886  170.1591 C.3     1  UNL1        0.0522
      6 C         141.1080  140.7717  170.5196 C.ar    1  UNL1        0.0296
      7 C         140.3906  141.9674  169.9669 C.ar    1  UNL1        0.0622
      8 C         139.5979  142.8549  170.8802 C.3     1  UNL1        0.0522
      9 N         140.4657  142.2757  168.5009 N.ar    1  UNL1       -0.2297
     10 C         141.2584  141.3882  167.5876 C.ar    1  UNL1        0.1835
     11 C         141.5132  141.4397  166.1103 C.ar    1  UNL1        0.1787
     12 C         144.3395  139.6226  164.1639 C.3     1  UNL1        0.1097
     13 N         142.8892  139.9414  164.3763 N.pl3   1  UNL1       -0.3142
     14 H         142.2662  139.9312  163.6140 H       1  UNL1        0.1483
     15 S         140.9857  142.4735  165.1601 S.O2    1  UNL1        0.0331
     16 O         139.5969  141.9394  165.3500 O.2     1  UNL1       -0.1641
     17 O         142.3744  143.0076  164.9702 O.2     1  UNL1       -0.1641
     18 C         140.4580  143.5074  164.2099 C.ar    1  UNL1        0.1105
     19 C         141.3967  144.4879  163.5717 C.ar    1  UNL1        0.0187
     20 C         140.8692  145.5218  162.6215 C.ar    1  UNL1        0.0013
     21 C         139.4029  145.5751  162.3095 C.ar    1  UNL1        0.0001
     22 C         138.4643  144.5944  162.9478 C.ar    1  UNL1        0.0013
     23 C         138.9918  143.5607  163.8979 C.ar    1  UNL1        0.0187
@<TRIPOS>BOND
     1    12    13    1
     2    13     1    1
     3     1     2   ar
     4     2     3   ar
     5     3     4   ar
     6     4     5    1
     7     4     6   ar
     8     6     7   ar
     9     7     8    1
    10     7     9   ar
    11     9    10   ar
    12    10    11   ar
    13    11    15    1
    14    15    16    2
    15    15    17    2
    16    15    18    1
    17    18    19   ar
    18    19    20   ar
    19    20    21   ar
    20    21    22   ar
    21    22    23   ar
    22    11     1   ar
    23    23    18   ar
    24    10     3   ar
    25    13    14    1
@<TRIPOS>MOLECULE
*****
 23 25 0 0 0
SMALL
GASTEIGER

@<TRIPOS>ATOM
      1 C         139.7141  142.6558  163.0299 C.ar    1  UNL1        0.1694
      2 N         140.4298  142.8601  161.7277 N.ar    1  UNL1       -0.1477
      3 N         141.8913  142.6131  161.9582 N.ar    1  UNL1       -0.2137
      4 C         143.0755  142.6671  161.0392 C.ar    1  UNL1        0.0638
      5 C         142.8881  143.0241  159.5944 C.3     1  UNL1        0.0522
      6 C         144.4473  142.3642  161.5651 C.ar    1  UNL1        0.0296
      7 C         144.6348  142.0073  163.0099 C.ar    1  UNL1        0.0622
      8 C         146.0066  141.7044  163.5357 C.3     1  UNL1        0.0522
      9 N         143.4505  141.9533  163.9288 N.ar    1  UNL1       -0.2297
     10 C         142.0788  142.2562  163.4030 C.ar    1  UNL1        0.1835
     11 C         140.7332  142.2826  164.0654 C.ar    1  UNL1        0.1787
     12 C         137.3398  141.6055  163.1277 C.3     1  UNL1        0.1097
     13 N         138.2383  142.7996  163.2569 N.pl3   1  UNL1       -0.3142
     14 H         137.8595  143.6776  163.4908 H       1  UNL1        0.1483
     15 S         140.4555  141.9876  165.5096 S.O2    1  UNL1        0.0331
     16 O         140.7158  140.5312  165.2621 O.2     1  UNL1       -0.1641
     17 O         140.1951  143.4438  165.7571 O.2     1  UNL1       -0.1641
     18 C         140.1778  141.6924  166.9539 C.ar    1  UNL1        0.1105
     19 C         140.5024  142.7133  168.0038 C.ar    1  UNL1        0.0187
     20 C         140.2247  142.4183  169.4480 C.ar    1  UNL1        0.0013
     21 C         139.6225  141.1023  169.8424 C.ar    1  UNL1        0.0001
     22 C         139.2979  140.0814  168.7923 C.ar    1  UNL1        0.0013
     23 C         139.5755  140.3765  167.3482 C.ar    1  UNL1        0.0187
@<TRIPOS>BOND
     1    12    13    1
     2    13     1    1
     3     1     2   ar
     4     2     3   ar
     5     3     4   ar
     6     4     5    1
     7     4     6   ar
     8     6     7   ar
     9     7     8    1
    10     7     9   ar
    11     9    10   ar
    12    10    11   ar
    13    11    15    1
    14    15    16    2
    15    15    17    2
    16    15    18    1
    17    18    19   ar
    18    19    20   ar
    19    20    21   ar
    20    21    22   ar
    21    22    23   ar
    22    11     1   ar
    23    23    18   ar
    24    10     3   ar
    25    13    14    1
@<TRIPOS>MOLECULE
*****
 23 25 0 0 0
SMALL
GASTEIGER

@<TRIPOS>ATOM
      1 C         141.2678  138.8284  164.1558 C.ar    1  UNL1        0.1694
      2 N         141.9154  138.8140  162.8028 N.ar    1  UNL1       -0.1477
      3 N         142.5584  140.1511  162.5824 N.ar    1  UNL1       -0.2137
      4 C         143.3394  140.7116  161.4310 C.ar    1  UNL1        0.0638
      5 C         143.5896  139.8708  160.2143 C.3     1  UNL1        0.0522
      6 C         143.8702  142.1130  161.4963 C.ar    1  UNL1        0.0296
      7 C         143.6200  142.9539  162.7130 C.ar    1  UNL1        0.0622
      8 C         144.1509  144.3553  162.7782 C.3     1  UNL1        0.0522
      9 N         142.8390  142.3933  163.8644 N.ar    1  UNL1       -0.2297
     10 C         142.3082  140.9920  163.7991 C.ar    1  UNL1        0.1835
     11 C         141.5106  140.1745  164.7715 C.ar    1  UNL1        0.1787
     12 C         139.0223  137.7882  164.9467 C.3     1  UNL1        0.1097
     13 N         140.5104  137.6956  164.7829 N.pl3   1  UNL1       -0.3142
     14 H         140.9900  136.8914  165.0869 H       1  UNL1        0.1483
     15 S         141.0386  140.6242  166.1224 S.O2    1  UNL1        0.0331
     16 O         142.0386  139.7157  166.7742 O.2     1  UNL1       -0.1641
     17 O         140.0387  141.5326  165.4707 O.2     1  UNL1       -0.1641
     18 C         140.5667  141.0738  167.4734 C.ar    1  UNL1        0.1105
     19 C         139.7749  140.1402  168.3402 C.ar    1  UNL1        0.0187
     20 C         139.3030  140.5897  169.6912 C.ar    1  UNL1        0.0013
     21 C         139.6228  141.9729  170.1754 C.ar    1  UNL1        0.0001
     22 C         140.4146  142.9066  169.3085 C.ar    1  UNL1        0.0013
     23 C         140.8865  142.4570  167.9576 C.ar    1  UNL1        0.0187
@<TRIPOS>BOND
     1    12    13    1
     2    13     1    1
     3     1     2   ar
     4     2     3   ar
     5     3     4   ar
     6     4     5    1
     7     4     6   ar
     8     6     7   ar
     9     7     8    1
    10     7     9   ar
    11     9    10   ar
    12    10    11   ar
    13    11    15    1
    14    15    16    2
    15    15    17    2
    16    15    18    1
    17    18    19   ar
    18    19    20   ar
    19    20    21   ar
    20    21    22   ar
    21    22    23   ar
    22    11     1   ar
    23    23    18   ar
    24    10     3   ar
    25    13    14    1
