@<TRIPOS>MOLECULE
*****
 27 29 0 0 0
SMALL
GASTEIGER

@<TRIPOS>ATOM
      1 C         140.1482  141.2783  166.6270 C.3     1  UNL1        0.0868
      2 F         137.7783  139.6895  165.7001 F       1  UNL1       -0.2045
      3 C         139.1651  139.1548  165.4981 C.ar    1  UNL1        0.1374
      4 C         139.3670  137.8257  164.8327 C.ar    1  UNL1        0.0294
      5 C         140.7538  137.2910  164.6307 C.ar    1  UNL1        0.0023
      6 C         141.9388  138.0854  165.0941 C.ar    1  UNL1       -0.0001
      7 C         141.7369  139.4144  165.7595 C.ar    1  UNL1       -0.0007
      8 C         140.3501  139.9491  165.9615 C.ar    1  UNL1        0.0200
      9 N         140.2110  141.3859  168.1218 N.3     1  UNL1       -0.2676
     10 C         140.0040  140.1667  168.9708 C.3     1  UNL1        0.0896
     11 C         140.0667  140.2743  170.4656 C.3     1  UNL1        0.0862
     12 N         140.3365  141.6010  171.1114 N.3     1  UNL1       -0.2951
     13 C         140.5435  142.8201  170.2624 C.3     1  UNL1        0.0862
     14 C         140.4808  142.7126  168.7676 C.3     1  UNL1        0.0896
     15 H         141.1791  141.4882  171.6751 H       1  UNL1        0.1233
     16 C         139.8836  142.4998  165.7976 C.3     1  UNL1        0.0500
     17 C         141.0275  143.2544  165.1876 C.ar    1  UNL1        0.0137
     18 C         142.4328  142.7620  165.3694 C.ar    1  UNL1       -0.0012
     19 C         143.5766  143.5166  164.7594 C.ar    1  UNL1       -0.0001
     20 C         143.3154  144.7636  163.9677 C.ar    1  UNL1        0.0031
     21 C         141.9102  145.2559  163.7859 C.ar    1  UNL1        0.0369
     22 C         140.7662  144.5013  164.3959 C.ar    1  UNL1        0.1428
     23 O         139.3611  144.9937  164.2141 O.3     1  UNL1       -0.4048
     24 C         138.4097  144.2386  163.3339 C.3     1  UNL1        0.5753
     25 F         137.4584  143.4835  162.4537 F       1  UNL1       -0.1328
     26 F         139.4388  144.2140  162.2428 F       1  UNL1       -0.1328
     27 F         137.3807  144.2631  164.4250 F       1  UNL1       -0.1328
@<TRIPOS>BOND
     1     2     3    1
     2     3     4   ar
     3     4     5   ar
     4     5     6   ar
     5     6     7   ar
     6     7     8   ar
     7     8     1    1
     8     1    16    1
     9    16    17    1
    10    17    18   ar
    11    18    19   ar
    12    19    20   ar
    13    20    21   ar
    14    21    22   ar
    15    22    23    1
    16    23    24    1
    17    24    25    1
    18    24    26    1
    19    24    27    1
    20     1     9    1
    21     9    10    1
    22    10    11    1
    23    11    12    1
    24    12    13    1
    25    13    14    1
    26     8     3   ar
    27    22    17   ar
    28    14     9    1
    29    12    15    1
@<TRIPOS>MOLECULE
*****
 27 29 0 0 0
SMALL
GASTEIGER

@<TRIPOS>ATOM
      1 C         140.6004  141.0685  167.4609 C.3     1  UNL1        0.0868
      2 F         142.2405  139.5786  165.4385 F       1  UNL1       -0.2045
      3 C         140.8366  139.1413  165.7346 C.ar    1  UNL1        0.1374
      4 C         140.2526  137.9591  165.0194 C.ar    1  UNL1        0.0294
      5 C         138.8487  137.5219  165.3155 C.ar    1  UNL1        0.0023
      6 C         138.0286  138.2668  166.3267 C.ar    1  UNL1       -0.0001
      7 C         138.6125  139.4490  167.0418 C.ar    1  UNL1       -0.0007
      8 C         140.0165  139.8862  166.7458 C.ar    1  UNL1        0.0200
      9 N         141.1360  140.9132  168.8534 N.3     1  UNL1       -0.2676
     10 C         140.4555  141.6011  169.9997 C.3     1  UNL1        0.0896
     11 C         140.9910  141.4458  171.3922 C.3     1  UNL1        0.0862
     12 N         142.2070  140.6027  171.6385 N.3     1  UNL1       -0.2951
     13 C         142.8874  139.9149  170.4923 C.3     1  UNL1        0.0862
     14 C         142.3519  140.0701  169.0997 C.3     1  UNL1        0.0896
     15 H         141.9318  139.8744  172.2975 H       1  UNL1        0.1233
     16 C         140.6488  142.4059  166.7836 C.3     1  UNL1        0.0500
     17 C         141.7083  142.6907  165.7607 C.ar    1  UNL1        0.0137
     18 C         143.1571  142.6310  166.1449 C.ar    1  UNL1       -0.0012
     19 C         144.2166  142.9158  165.1221 C.ar    1  UNL1       -0.0001
     20 C         143.8274  143.2603  163.7150 C.ar    1  UNL1        0.0031
     21 C         142.3787  143.3201  163.3308 C.ar    1  UNL1        0.0369
     22 C         141.3191  143.0353  164.3536 C.ar    1  UNL1        0.1428
     23 O         139.8704  143.0950  163.9694 O.3     1  UNL1       -0.4048
     24 C         139.0543  141.8373  163.9233 C.3     1  UNL1        0.5753
     25 F         138.2381  140.5796  163.8772 F       1  UNL1       -0.1328
     26 F         137.9710  142.5114  164.7120 F       1  UNL1       -0.1328
     27 F         140.1376  141.1632  163.1346 F       1  UNL1       -0.1328
@<TRIPOS>BOND
     1     2     3    1
     2     3     4   ar
     3     4     5   ar
     4     5     6   ar
     5     6     7   ar
     6     7     8   ar
     7     8     1    1
     8     1    16    1
     9    16    17    1
    10    17    18   ar
    11    18    19   ar
    12    19    20   ar
    13    20    21   ar
    14    21    22   ar
    15    22    23    1
    16    23    24    1
    17    24    25    1
    18    24    26    1
    19    24    27    1
    20     1     9    1
    21     9    10    1
    22    10    11    1
    23    11    12    1
    24    12    13    1
    25    13    14    1
    26     8     3   ar
    27    22    17   ar
    28    14     9    1
    29    12    15    1
@<TRIPOS>MOLECULE
*****
 27 29 0 0 0
SMALL
GASTEIGER

@<TRIPOS>ATOM
      1 C         141.4747  142.3000  167.2519 C.3     1  UNL1        0.0868
      2 F         139.8617  139.8138  166.7861 F       1  UNL1       -0.2045
      3 C         139.5388  141.0696  166.0319 C.ar    1  UNL1        0.1374
      4 C         138.4095  141.0822  165.0448 C.ar    1  UNL1        0.0294
      5 C         138.0866  142.3380  164.2906 C.ar    1  UNL1        0.0023
      6 C         138.8931  143.5810  164.5234 C.ar    1  UNL1       -0.0001
      7 C         140.0225  143.5684  165.5105 C.ar    1  UNL1       -0.0007
      8 C         140.3453  142.3126  166.2647 C.ar    1  UNL1        0.0200
      9 N         141.1862  142.2000  168.7204 N.3     1  UNL1       -0.2676
     10 C         141.8669  141.1509  169.5488 C.3     1  UNL1        0.0896
     11 C         141.5783  141.0509  171.0173 C.3     1  UNL1        0.0862
     12 N         140.6091  142.0000  171.6576 N.3     1  UNL1       -0.2951
     13 C         139.9285  143.0490  170.8293 C.3     1  UNL1        0.0862
     14 C         140.2170  143.1491  169.3607 C.3     1  UNL1        0.0896
     15 H         141.1189  142.4901  172.3926 H       1  UNL1        0.1233
     16 C         142.8926  142.3874  166.7703 C.3     1  UNL1        0.0500
     17 C         143.4176  141.3751  165.7959 C.ar    1  UNL1        0.0137
     18 C         143.1141  139.9190  165.9906 C.ar    1  UNL1       -0.0012
     19 C         143.6390  138.9066  165.0162 C.ar    1  UNL1       -0.0001
     20 C         144.4674  139.3502  163.8471 C.ar    1  UNL1        0.0031
     21 C         144.7709  140.8062  163.6523 C.ar    1  UNL1        0.0369
     22 C         144.2460  141.8187  164.6268 C.ar    1  UNL1        0.1428
     23 O         144.5495  143.2746  164.4320 O.3     1  UNL1       -0.4048
     24 C         143.4517  144.2262  164.0585 C.3     1  UNL1        0.5753
     25 F         142.3539  145.1777  163.6851 F       1  UNL1       -0.1328
     26 F         144.1444  145.3216  164.8137 F       1  UNL1       -0.1328
     27 F         142.7590  143.1307  163.3034 F       1  UNL1       -0.1328
@<TRIPOS>BOND
     1     2     3    1
     2     3     4   ar
     3     4     5   ar
     4     5     6   ar
     5     6     7   ar
     6     7     8   ar
     7     8     1    1
     8     1    16    1
     9    16    17    1
    10    17    18   ar
    11    18    19   ar
    12    19    20   ar
    13    20    21   ar
    14    21    22   ar
    15    22    23    1
    16    23    24    1
    17    24    25    1
    18    24    26    1
    19    24    27    1
    20     1     9    1
    21     9    10    1
    22    10    11    1
    23    11    12    1
    24    12    13    1
    25    13    14    1
    26     8     3   ar
    27    22    17   ar
    28    14     9    1
    29    12    15    1
@<TRIPOS>MOLECULE
*****
 27 29 0 0 0
SMALL
GASTEIGER

@<TRIPOS>ATOM
      1 C         141.1911  140.9740  167.3752 C.3     1  UNL1        0.0868
      2 F         142.4304  142.7522  165.3010 F       1  UNL1       -0.2045
      3 C         142.9182  141.3438  165.4699 C.ar    1  UNL1        0.1374
      4 C         144.0257  140.8245  164.6017 C.ar    1  UNL1        0.0294
      5 C         144.5135  139.4161  164.7705 C.ar    1  UNL1        0.0023
      6 C         143.8939  138.5270  165.8076 C.ar    1  UNL1       -0.0001
      7 C         142.7864  139.0463  166.6758 C.ar    1  UNL1       -0.0007
      8 C         142.2986  140.4547  166.5069 C.ar    1  UNL1        0.0200
      9 N         141.4795  141.3995  168.7843 N.3     1  UNL1       -0.2676
     10 C         140.7729  140.7344  169.9282 C.3     1  UNL1        0.0896
     11 C         141.0613  141.1599  171.3373 C.3     1  UNL1        0.0862
     12 N         142.0563  142.2505  171.6027 N.3     1  UNL1       -0.2951
     13 C         142.7630  142.9156  170.4589 C.3     1  UNL1        0.0862
     14 C         142.4746  142.4901  169.0497 C.3     1  UNL1        0.0896
     15 H         142.7782  141.8510  172.2025 H       1  UNL1        0.1233
     16 C         139.7952  141.0678  166.8343 C.3     1  UNL1        0.0500
     17 C         139.3970  140.2513  165.6406 C.ar    1  UNL1        0.0137
     18 C         139.1710  138.7752  165.7831 C.ar    1  UNL1       -0.0012
     19 C         138.7728  137.9588  164.5895 C.ar    1  UNL1       -0.0001
     20 C         138.6006  138.6183  163.2533 C.ar    1  UNL1        0.0031
     21 C         138.8265  140.0943  163.1108 C.ar    1  UNL1        0.0369
     22 C         139.2247  140.9108  164.3045 C.ar    1  UNL1        0.1428
     23 O         139.4506  142.3868  164.1619 O.3     1  UNL1       -0.4048
     24 C         138.4176  143.3550  164.6573 C.3     1  UNL1        0.5753
     25 F         137.3845  144.3232  165.1527 F       1  UNL1       -0.1328
     26 F         137.3476  142.5728  163.9549 F       1  UNL1       -0.1328
     27 F         139.4875  144.1373  165.3597 F       1  UNL1       -0.1328
@<TRIPOS>BOND
     1     2     3    1
     2     3     4   ar
     3     4     5   ar
     4     5     6   ar
     5     6     7   ar
     6     7     8   ar
     7     8     1    1
     8     1    16    1
     9    16    17    1
    10    17    18   ar
    11    18    19   ar
    12    19    20   ar
    13    20    21   ar
    14    21    22   ar
    15    22    23    1
    16    23    24    1
    17    24    25    1
    18    24    26    1
    19    24    27    1
    20     1     9    1
    21     9    10    1
    22    10    11    1
    23    11    12    1
    24    12    13    1
    25    13    14    1
    26     8     3   ar
    27    22    17   ar
    28    14     9    1
    29    12    15    1
@<TRIPOS>MOLECULE
*****
 27 29 0 0 0
SMALL
GASTEIGER

@<TRIPOS>ATOM
      1 C         142.3219  140.7934  166.4918 C.3     1  UNL1        0.0868
      2 F         143.7609  138.5157  165.1721 F       1  UNL1       -0.2045
      3 C         144.1530  139.9302  164.8633 C.ar    1  UNL1        0.1374
      4 C         145.2646  140.2059  163.8947 C.ar    1  UNL1        0.0294
      5 C         145.6568  141.6204  163.5859 C.ar    1  UNL1        0.0023
      6 C         144.9373  142.7592  164.2457 C.ar    1  UNL1       -0.0001
      7 C         143.8257  142.4836  165.2143 C.ar    1  UNL1       -0.0007
      8 C         143.4336  141.0690  165.5231 C.ar    1  UNL1        0.0200
      9 N         142.5678  140.9053  167.9672 N.3     1  UNL1       -0.2676
     10 C         142.9407  142.2285  168.5673 C.3     1  UNL1        0.0896
     11 C         143.1866  142.3404  170.0427 C.3     1  UNL1        0.0862
     12 N         143.0596  141.1291  170.9182 N.3     1  UNL1       -0.2951
     13 C         142.6867  139.8058  170.3183 C.3     1  UNL1        0.0862
     14 C         142.4408  139.6939  168.8427 C.3     1  UNL1        0.0896
     15 H         142.3503  141.3451  171.6187 H       1  UNL1        0.1233
     16 C         140.9643  140.4059  165.9849 C.3     1  UNL1        0.0500
     17 C         140.0005  141.4645  165.5375 C.ar    1  UNL1        0.0137
     18 C         140.1998  142.8889  165.9638 C.ar    1  UNL1       -0.0012
     19 C         139.2360  143.9475  165.5163 C.ar    1  UNL1       -0.0001
     20 C         138.0728  143.5819  164.6427 C.ar    1  UNL1        0.0031
     21 C         137.8734  142.1577  164.2165 C.ar    1  UNL1        0.0369
     22 C         138.8373  141.0989  164.6639 C.ar    1  UNL1        0.1428
     23 O         138.6379  139.6747  164.2377 O.3     1  UNL1       -0.4048
     24 C         138.4444  138.6031  165.2693 C.3     1  UNL1        0.5753
     25 F         138.2509  137.5316  166.3010 F       1  UNL1       -0.1328
     26 F         137.5584  139.5218  166.0574 F       1  UNL1       -0.1328
     27 F         139.3303  137.6844  164.4813 F       1  UNL1       -0.1328
@<TRIPOS>BOND
     1     2     3    1
     2     3     4   ar
     3     4     5   ar
     4     5     6   ar
     5     6     7   ar
     6     7     8   ar
     7     8     1    1
     8     1    16    1
     9    16    17    1
    10    17    18   ar
    11    18    19   ar
    12    19    20   ar
    13    20    21   ar
    14    21    22   ar
    15    22    23    1
    16    23    24    1
    17    24    25    1
    18    24    26    1
    19    24    27    1
    20     1     9    1
    21     9    10    1
    22    10    11    1
    23    11    12    1
    24    12    13    1
    25    13    14    1
    26     8     3   ar
    27    22    17   ar
    28    14     9    1
    29    12    15    1
@<TRIPOS>MOLECULE
*****
 27 29 0 0 0
SMALL
GASTEIGER

@<TRIPOS>ATOM
      1 C         140.5006  141.3032  165.6545 C.3     1  UNL1        0.0868
      2 F         139.2079  139.1113  167.2433 F       1  UNL1       -0.2045
      3 C         139.6325  140.3795  167.9224 C.ar    1  UNL1        0.1374
      4 C         139.4108  140.5518  169.3958 C.ar    1  UNL1        0.0294
      5 C         139.8354  141.8201  170.0749 C.ar    1  UNL1        0.0023
      6 C         140.4817  142.9161  169.2806 C.ar    1  UNL1       -0.0001
      7 C         140.7035  142.7438  167.8072 C.ar    1  UNL1       -0.0007
      8 C         140.2788  141.4755  167.1280 C.ar    1  UNL1        0.0200
      9 N         139.3314  141.3048  164.7149 N.3     1  UNL1       -0.2676
     10 C         138.5102  142.5481  164.5415 C.3     1  UNL1        0.0896
     11 C         137.3410  142.5497  163.6019 C.3     1  UNL1        0.0862
     12 N         136.9930  141.3080  162.8356 N.3     1  UNL1       -0.2951
     13 C         137.8142  140.0648  163.0088 C.3     1  UNL1        0.0862
     14 C         138.9834  140.0632  163.9485 C.3     1  UNL1        0.0896
     15 H         137.0331  141.5519  161.8459 H       1  UNL1        0.1233
     16 C         141.8916  141.1294  165.1207 C.3     1  UNL1        0.0500
     17 C         142.5516  142.2472  164.3691 C.ar    1  UNL1        0.0137
     18 C         142.1801  143.6705  164.6627 C.ar    1  UNL1       -0.0012
     19 C         142.8402  144.7882  163.9111 C.ar    1  UNL1       -0.0001
     20 C         143.8717  144.4827  162.8659 C.ar    1  UNL1        0.0031
     21 C         144.2432  143.0595  162.5722 C.ar    1  UNL1        0.0369
     22 C         143.5832  141.9416  163.3238 C.ar    1  UNL1        0.1428
     23 O         143.9547  140.5184  163.0302 O.3     1  UNL1       -0.4048
     24 C         144.7683  139.7364  164.0183 C.3     1  UNL1        0.5753
     25 F         145.5819  138.9545  165.0065 F       1  UNL1       -0.1328
     26 F         145.7794  140.8435  164.0619 F       1  UNL1       -0.1328
     27 F         143.7572  138.6293  163.9748 F       1  UNL1       -0.1328
@<TRIPOS>BOND
     1     2     3    1
     2     3     4   ar
     3     4     5   ar
     4     5     6   ar
     5     6     7   ar
     6     7     8   ar
     7     8     1    1
     8     1    16    1
     9    16    17    1
    10    17    18   ar
    11    18    19   ar
    12    19    20   ar
    13    20    21   ar
    14    21    22   ar
    15    22    23    1
    16    23    24    1
    17    24    25    1
    18    24    26    1
    19    24    27    1
    20     1     9    1
    21     9    10    1
    22    10    11    1
    23    11    12    1
    24    12    13    1
    25    13    14    1
    26     8     3   ar
    27    22    17   ar
    28    14     9    1
    29    12    15    1
@<TRIPOS>MOLECULE
*****
 27 29 0 0 0
SMALL
GASTEIGER

@<TRIPOS>ATOM
      1 C         142.2912  141.0991  167.2513 C.3     1  UNL1        0.0868
      2 F         139.8464  142.3958  166.0930 F       1  UNL1       -0.2045
      3 C         141.2094  142.8132  165.6260 C.ar    1  UNL1        0.1374
      4 C         141.3499  143.8789  164.5798 C.ar    1  UNL1        0.0294
      5 C         142.7129  144.2963  164.1128 C.ar    1  UNL1        0.0023
      6 C         143.9353  143.6480  164.6919 C.ar    1  UNL1       -0.0001
      7 C         143.7947  142.5823  165.7381 C.ar    1  UNL1       -0.0007
      8 C         142.4317  142.1649  166.2051 C.ar    1  UNL1        0.0200
      9 N         142.1905  141.4780  168.6991 N.3     1  UNL1       -0.2676
     10 C         143.0419  142.5856  169.2455 C.3     1  UNL1        0.0896
     11 C         142.9413  142.9645  170.6933 C.3     1  UNL1        0.0862
     12 N         141.9892  142.2359  171.5948 N.3     1  UNL1       -0.2951
     13 C         141.1378  141.1284  171.0485 C.3     1  UNL1        0.0862
     14 C         141.2384  140.7494  169.6006 C.3     1  UNL1        0.0896
     15 H         141.3528  142.9351  171.9777 H       1  UNL1        0.1233
     16 C         142.2513  139.6544  166.8496 C.3     1  UNL1        0.0500
     17 C         141.1264  139.1432  165.9991 C.ar    1  UNL1        0.0137
     18 C         139.7114  139.2454  166.4864 C.ar    1  UNL1       -0.0012
     19 C         138.5866  138.7342  165.6360 C.ar    1  UNL1       -0.0001
     20 C         138.8766  138.1208  164.2982 C.ar    1  UNL1        0.0031
     21 C         140.2915  138.0187  163.8109 C.ar    1  UNL1        0.0369
     22 C         141.4165  138.5299  164.6613 C.ar    1  UNL1        0.1428
     23 O         142.8314  138.4278  164.1740 O.3     1  UNL1       -0.4048
     24 C         143.5064  139.6255  163.5742 C.3     1  UNL1        0.5753
     25 F         144.1814  140.8233  162.9744 F       1  UNL1       -0.1328
     26 F         144.8458  139.0298  163.8919 F       1  UNL1       -0.1328
     27 F         142.1669  140.2213  163.2565 F       1  UNL1       -0.1328
@<TRIPOS>BOND
     1     2     3    1
     2     3     4   ar
     3     4     5   ar
     4     5     6   ar
     5     6     7   ar
     6     7     8   ar
     7     8     1    1
     8     1    16    1
     9    16    17    1
    10    17    18   ar
    11    18    19   ar
    12    19    20   ar
    13    20    21   ar
    14    21    22   ar
    15    22    23    1
    16    23    24    1
    17    24    25    1
    18    24    26    1
    19    24    27    1
    20     1     9    1
    21     9    10    1
    22    10    11    1
    23    11    12    1
    24    12    13    1
    25    13    14    1
    26     8     3   ar
    27    22    17   ar
    28    14     9    1
    29    12    15    1
@<TRIPOS>MOLECULE
*****
 27 29 0 0 0
SMALL
GASTEIGER

@<TRIPOS>ATOM
      1 C         141.3492  140.6617  167.1506 C.3     1  UNL1        0.0868
      2 F         142.1323  138.1457  165.7166 F       1  UNL1       -0.2045
      3 C         142.8779  139.4208  165.4555 C.ar    1  UNL1        0.1374
      4 C         144.0150  139.4379  164.4775 C.ar    1  UNL1        0.0294
      5 C         144.7606  140.7130  164.2165 C.ar    1  UNL1        0.0023
      6 C         144.3691  141.9710  164.9335 C.ar    1  UNL1       -0.0001
      7 C         143.2320  141.9539  165.9115 C.ar    1  UNL1       -0.0007
      8 C         142.4863  140.6788  166.1725 C.ar    1  UNL1        0.0200
      9 N         141.6254  140.7321  168.6233 N.3     1  UNL1       -0.2676
     10 C         142.6306  139.8071  169.2429 C.3     1  UNL1        0.0896
     11 C         142.9069  139.8776  170.7156 C.3     1  UNL1        0.0862
     12 N         142.1779  140.8731  171.5686 N.3     1  UNL1       -0.2951
     13 C         141.1727  141.7980  170.9490 C.3     1  UNL1        0.0862
     14 C         140.8964  141.7276  169.4763 C.3     1  UNL1        0.0896
     15 H         142.8872  141.4603  172.0073 H       1  UNL1        0.1233
     16 C         139.9358  140.5741  166.6560 C.3     1  UNL1        0.0500
     17 C         139.3578  141.6890  165.8357 C.ar    1  UNL1        0.0137
     18 C         139.7795  143.1055  166.0923 C.ar    1  UNL1       -0.0012
     19 C         139.2016  144.2204  165.2720 C.ar    1  UNL1       -0.0001
     20 C         138.2018  143.9189  164.1952 C.ar    1  UNL1        0.0031
     21 C         137.7801  142.5025  163.9386 C.ar    1  UNL1        0.0369
     22 C         138.3580  141.3875  164.7589 C.ar    1  UNL1        0.1428
     23 O         137.9363  139.9711  164.5023 O.3     1  UNL1       -0.4048
     24 C         138.9430  138.9615  164.0363 C.3     1  UNL1        0.5753
     25 F         139.9497  137.9519  163.5702 F       1  UNL1       -0.1328
     26 F         138.4868  138.0132  165.1052 F       1  UNL1       -0.1328
     27 F         139.3992  139.9097  162.9673 F       1  UNL1       -0.1328
@<TRIPOS>BOND
     1     2     3    1
     2     3     4   ar
     3     4     5   ar
     4     5     6   ar
     5     6     7   ar
     6     7     8   ar
     7     8     1    1
     8     1    16    1
     9    16    17    1
    10    17    18   ar
    11    18    19   ar
    12    19    20   ar
    13    20    21   ar
    14    21    22   ar
    15    22    23    1
    16    23    24    1
    17    24    25    1
    18    24    26    1
    19    24    27    1
    20     1     9    1
    21     9    10    1
    22    10    11    1
    23    11    12    1
    24    12    13    1
    25    13    14    1
    26     8     3   ar
    27    22    17   ar
    28    14     9    1
    29    12    15    1
@<TRIPOS>MOLECULE
*****
 27 29 0 0 0
SMALL
GASTEIGER

@<TRIPOS>ATOM
      1 C         140.5934  142.1847  166.5074 C.3     1  UNL1        0.0868
      2 F         139.2330  144.6799  165.5465 F       1  UNL1       -0.2045
      3 C         138.8387  143.3465  164.9838 C.ar    1  UNL1        0.1374
      4 C         137.7643  143.2606  163.9407 C.ar    1  UNL1        0.0294
      5 C         137.3700  141.9272  163.3780 C.ar    1  UNL1        0.0023
      6 C         138.0502  140.6797  163.8584 C.ar    1  UNL1       -0.0001
      7 C         139.1247  140.7655  164.9015 C.ar    1  UNL1       -0.0007
      8 C         139.5189  142.0989  165.4642 C.ar    1  UNL1        0.0200
      9 N         140.2534  141.9758  167.9533 N.3     1  UNL1       -0.2676
     10 C         140.3893  143.1087  168.9270 C.3     1  UNL1        0.0896
     11 C         140.0493  142.8998  170.3729 C.3     1  UNL1        0.0862
     12 N         139.5733  141.5581  170.8452 N.3     1  UNL1       -0.2951
     13 C         139.4373  140.4252  169.8716 C.3     1  UNL1        0.0862
     14 C         139.7774  140.6340  168.4256 C.3     1  UNL1        0.0896
     15 H         138.6527  141.7016  171.2604 H       1  UNL1        0.1233
     16 C         142.0080  142.4794  166.1046 C.3     1  UNL1        0.0500
     17 C         142.8805  141.3814  165.5727 C.ar    1  UNL1        0.0137
     18 C         142.8416  140.0206  166.2027 C.ar    1  UNL1       -0.0012
     19 C         143.7142  138.9226  165.6708 C.ar    1  UNL1       -0.0001
     20 C         144.6257  139.1853  164.5088 C.ar    1  UNL1        0.0031
     21 C         144.6646  140.5460  163.8788 C.ar    1  UNL1        0.0369
     22 C         143.7920  141.6441  164.4107 C.ar    1  UNL1        0.1428
     23 O         143.8310  143.0047  163.7807 O.3     1  UNL1       -0.4048
     24 C         144.2228  144.1992  164.5990 C.3     1  UNL1        0.5753
     25 F         144.6147  145.3937  165.4174 F       1  UNL1       -0.1328
     26 F         143.1351  145.0016  163.9487 F       1  UNL1       -0.1328
     27 F         145.3106  143.3968  165.2494 F       1  UNL1       -0.1328
@<TRIPOS>BOND
     1     2     3    1
     2     3     4   ar
     3     4     5   ar
     4     5     6   ar
     5     6     7   ar
     6     7     8   ar
     7     8     1    1
     8     1    16    1
     9    16    17    1
    10    17    18   ar
    11    18    19   ar
    12    19    20   ar
    13    20    21   ar
    14    21    22   ar
    15    22    23    1
    16    23    24    1
    17    24    25    1
    18    24    26    1
    19    24    27    1
    20     1     9    1
    21     9    10    1
    22    10    11    1
    23    11    12    1
    24    12    13    1
    25    13    14    1
    26     8     3   ar
    27    22    17   ar
    28    14     9    1
    29    12    15    1
