@<TRIPOS>MOLECULE
*****
 35 37 0 0 0
SMALL
GASTEIGER

@<TRIPOS>ATOM
      1 C         140.7996  140.5936  168.6425 C.ar    1  UNL1        0.0764
      2 C         140.0008  140.0759  167.4832 C.ar    1  UNL1        0.0522
      3 C         138.6309  139.5086  167.7100 C.ar    1  UNL1        0.1515
      4 N         138.0598  139.4589  169.0962 N.ar    1  UNL1       -0.1329
      5 N         138.8586  139.9765  170.2555 N.ar    1  UNL1       -0.1409
      6 C         140.2285  140.5439  170.0286 C.ar    1  UNL1        0.1691
      7 C         141.0274  141.0615  171.1880 C.2     1  UNL1        0.2635
      8 N         142.3287  140.4106  171.5524 N.am    1  UNL1       -0.3240
      9 O         140.5248  142.2301  171.9829 O.2     1  UNL1       -0.2686
     10 H         142.6585  139.6436  171.0306 H       1  UNL1        0.1453
     11 H         142.8529  140.7503  172.3133 H       1  UNL1        0.1453
     12 N         142.1695  141.1609  168.4157 N.pl3   1  UNL1       -0.2965
     13 H         142.6167  141.6686  169.1309 H       1  UNL1        0.1537
     14 C         144.0298  141.9307  164.9956 C.ar    1  UNL1        0.0941
     15 N         143.3412  142.1368  166.3121 N.ar    1  UNL1       -0.2319
     16 C         142.8581  140.9547  167.0991 C.ar    1  UNL1        0.1320
     17 C         143.0636  139.5665  166.5694 C.ar    1  UNL1        0.0375
     18 C         143.7521  139.3604  165.2529 C.ar    1  UNL1        0.0410
     19 C         144.2352  140.5425  164.4660 C.ar    1  UNL1        0.1522
     20 O         144.9238  140.3363  163.1493 O.3     1  UNL1       -0.4702
     21 C         144.1141  140.1272  161.9041 C.3     1  UNL1        0.2525
     22 C         144.5129  143.1128  164.2087 C.3     1  UNL1        0.0490
     23 C         142.8264  145.0592  163.8662 C.3     1  UNL1        0.0004
     24 C         143.5613  143.8673  163.3283 C.3     1  UNL1        0.0064
     25 N         137.8321  138.9910  166.5508 N.pl3   1  UNL1       -0.3170
     26 H         136.8874  138.7434  166.6754 H       1  UNL1        0.1482
     27 C         138.4726  138.8506  165.2017 C.3     1  UNL1        0.0845
     28 C         139.2707  137.6234  164.8744 C.3     1  UNL1        0.0209
     29 C         139.9112  137.4830  163.5253 C.3     1  UNL1        0.0018
     30 C         139.7536  138.5698  162.5036 C.3     1  UNL1        0.0015
     31 C         138.9556  139.7970  162.8308 C.3     1  UNL1        0.0172
     32 C         138.3151  139.9374  164.1799 C.3     1  UNL1        0.0689
     33 N         137.5170  141.1646  164.5072 N.3     1  UNL1       -0.3209
     34 H         137.1573  141.0924  165.4589 H       1  UNL1        0.1189
     35 H         136.7375  141.2473  163.8545 H       1  UNL1        0.1189
@<TRIPOS>BOND
     1    23    24    1
     2    24    22    1
     3    22    14    1
     4    14    15   ar
     5    15    16   ar
     6    16    12    1
     7    12     1    1
     8     1     2   ar
     9     2     3   ar
    10     3    25    1
    11    27    25    1
    12    27    28    1
    13    28    29    1
    14    29    30    1
    15    30    31    1
    16    31    32    1
    17    32    33    1
    18     3     4   ar
    19     4     5   ar
    20     5     6   ar
    21     6     7    1
    22     7     8   am
    23     7     9    2
    24    16    17   ar
    25    17    18   ar
    26    18    19   ar
    27    19    20    1
    28    20    21    1
    29    19    14   ar
    30     6     1   ar
    31    32    27    1
    32    12    13    1
    33    25    26    1
    34    33    34    1
    35    33    35    1
    36     8    10    1
    37     8    11    1
@<TRIPOS>MOLECULE
*****
 35 37 0 0 0
SMALL
GASTEIGER

@<TRIPOS>ATOM
      1 C         141.1420  141.1792  167.6382 C.ar    1  UNL1        0.0764
      2 C         140.1718  141.0029  166.5078 C.ar    1  UNL1        0.0522
      3 C         138.9484  140.1553  166.6947 C.ar    1  UNL1        0.1515
      4 N         138.6951  139.4841  168.0121 N.ar    1  UNL1       -0.1329
      5 N         139.6652  139.6605  169.1424 N.ar    1  UNL1       -0.1409
      6 C         140.8886  140.5081  168.9555 C.ar    1  UNL1        0.1691
      7 C         141.8588  140.6844  170.0860 C.2     1  UNL1        0.2635
      8 N         141.4207  141.3595  171.3518 N.am    1  UNL1       -0.3240
      9 O         143.2669  140.1856  169.9505 O.2     1  UNL1       -0.2686
     10 H         140.4965  141.6869  171.4407 H       1  UNL1        0.1453
     11 H         142.0574  141.4753  172.0937 H       1  UNL1        0.1453
     12 N         142.3654  142.0268  167.4513 N.pl3   1  UNL1       -0.2965
     13 H         142.6557  142.6368  168.1674 H       1  UNL1        0.1537
     14 C         144.1906  140.5292  164.2614 C.ar    1  UNL1        0.0941
     15 N         143.4097  140.6111  165.5394 N.ar    1  UNL1       -0.2319
     16 C         143.1464  141.9449  166.1732 C.ar    1  UNL1        0.1320
     17 C         143.6641  143.1967  165.5291 C.ar    1  UNL1        0.0375
     18 C         144.4450  143.1148  164.2511 C.ar    1  UNL1        0.0410
     19 C         144.7083  141.7810  163.6173 C.ar    1  UNL1        0.1522
     20 O         145.4894  141.6991  162.3392 O.3     1  UNL1       -0.4702
     21 C         144.9058  142.2401  161.0677 C.3     1  UNL1        0.2525
     22 C         144.4539  139.1955  163.6275 C.3     1  UNL1        0.0490
     23 C         143.8986  138.0584  161.3585 C.3     1  UNL1        0.0004
     24 C         143.4510  138.6031  162.6824 C.3     1  UNL1        0.0064
     25 N         137.9783  139.9789  165.5643 N.pl3   1  UNL1       -0.3170
     26 H         137.0426  140.2662  165.6694 H       1  UNL1        0.1482
     27 C         138.4340  139.3649  164.2739 C.3     1  UNL1        0.0845
     28 C         139.3951  138.2133  164.2895 C.3     1  UNL1        0.0209
     29 C         139.8508  137.5993  162.9990 C.3     1  UNL1        0.0018
     30 C         139.3454  138.1367  161.6930 C.3     1  UNL1        0.0015
     31 C         138.3843  139.2883  161.6774 C.3     1  UNL1        0.0172
     32 C         137.9286  139.9024  162.9678 C.3     1  UNL1        0.0689
     33 N         136.9675  141.0539  162.9523 N.3     1  UNL1       -0.3209
     34 H         136.7681  141.3433  163.9098 H       1  UNL1        0.1189
     35 H         136.1012  140.7676  162.4962 H       1  UNL1        0.1189
@<TRIPOS>BOND
     1    23    24    1
     2    24    22    1
     3    22    14    1
     4    14    15   ar
     5    15    16   ar
     6    16    12    1
     7    12     1    1
     8     1     2   ar
     9     2     3   ar
    10     3    25    1
    11    27    25    1
    12    27    28    1
    13    28    29    1
    14    29    30    1
    15    30    31    1
    16    31    32    1
    17    32    33    1
    18     3     4   ar
    19     4     5   ar
    20     5     6   ar
    21     6     7    1
    22     7     8   am
    23     7     9    2
    24    16    17   ar
    25    17    18   ar
    26    18    19   ar
    27    19    20    1
    28    20    21    1
    29    19    14   ar
    30     6     1   ar
    31    32    27    1
    32    12    13    1
    33    25    26    1
    34    33    34    1
    35    33    35    1
    36     8    10    1
    37     8    11    1
@<TRIPOS>MOLECULE
*****
 35 37 0 0 0
SMALL
GASTEIGER

@<TRIPOS>ATOM
      1 C         140.6505  139.9702  167.3697 C.ar    1  UNL1        0.0764
      2 C         141.5116  139.4554  166.2545 C.ar    1  UNL1        0.0522
      3 C         142.8610  138.8739  166.5562 C.ar    1  UNL1        0.1515
      4 N         143.3492  138.8071  167.9730 N.ar    1  UNL1       -0.1329
      5 N         142.4881  139.3218  169.0880 N.ar    1  UNL1       -0.1409
      6 C         141.1387  139.9034  168.7864 C.ar    1  UNL1        0.1691
      7 C         140.2775  140.4181  169.9016 C.2     1  UNL1        0.2635
      8 N         139.9858  139.5469  171.0873 N.am    1  UNL1       -0.3240
      9 O         139.7081  141.8040  169.8310 O.2     1  UNL1       -0.2686
     10 H         140.3595  138.6373  171.1336 H       1  UNL1        0.1453
     11 H         139.4206  139.8848  171.8192 H       1  UNL1        0.1453
     12 N         139.3011  140.5517  167.0681 N.pl3   1  UNL1       -0.2965
     13 H         138.5730  140.4732  167.7260 H       1  UNL1        0.1537
     14 C         139.4045  143.3153  164.2216 C.ar    1  UNL1        0.0941
     15 N         139.6445  142.6141  165.5257 N.ar    1  UNL1       -0.2319
     16 C         139.0611  141.2529  165.7639 C.ar    1  UNL1        0.1320
     17 C         138.2377  140.5928  164.6979 C.ar    1  UNL1        0.0375
     18 C         137.9977  141.2940  163.3938 C.ar    1  UNL1        0.0410
     19 C         138.5811  142.6552  163.1557 C.ar    1  UNL1        0.1522
     20 O         138.3411  143.3564  161.8515 O.3     1  UNL1       -0.4702
     21 C         138.5065  142.6134  160.5590 C.3     1  UNL1        0.2525
     22 C         139.9879  144.6765  163.9835 C.3     1  UNL1        0.0490
     23 C         142.3439  143.7242  163.4427 C.3     1  UNL1        0.0004
     24 C         141.4758  144.8531  163.9140 C.3     1  UNL1        0.0064
     25 N         143.7221  138.3592  165.4411 N.pl3   1  UNL1       -0.3170
     26 H         144.1134  137.4575  165.4973 H       1  UNL1        0.1482
     27 C         143.9871  139.2182  164.2404 C.3     1  UNL1        0.0845
     28 C         144.9177  140.3898  164.3470 C.3     1  UNL1        0.0209
     29 C         145.1826  141.2489  163.1462 C.3     1  UNL1        0.0018
     30 C         144.5170  140.9363  161.8388 C.3     1  UNL1        0.0015
     31 C         143.5864  139.7647  161.7322 C.3     1  UNL1        0.0172
     32 C         143.3215  138.9057  162.9329 C.3     1  UNL1        0.0689
     33 N         142.3909  137.7340  162.8263 N.3     1  UNL1       -0.3209
     34 H         142.3283  137.2662  163.7305 H       1  UNL1        0.1189
     35 H         142.7463  137.0799  162.1290 H       1  UNL1        0.1189
@<TRIPOS>BOND
     1    23    24    1
     2    24    22    1
     3    22    14    1
     4    14    15   ar
     5    15    16   ar
     6    16    12    1
     7    12     1    1
     8     1     2   ar
     9     2     3   ar
    10     3    25    1
    11    27    25    1
    12    27    28    1
    13    28    29    1
    14    29    30    1
    15    30    31    1
    16    31    32    1
    17    32    33    1
    18     3     4   ar
    19     4     5   ar
    20     5     6   ar
    21     6     7    1
    22     7     8   am
    23     7     9    2
    24    16    17   ar
    25    17    18   ar
    26    18    19   ar
    27    19    20    1
    28    20    21    1
    29    19    14   ar
    30     6     1   ar
    31    32    27    1
    32    12    13    1
    33    25    26    1
    34    33    34    1
    35    33    35    1
    36     8    10    1
    37     8    11    1
@<TRIPOS>MOLECULE
*****
 35 37 0 0 0
SMALL
GASTEIGER

@<TRIPOS>ATOM
      1 C         140.6818  140.8943  167.7438 C.ar    1  UNL1        0.0764
      2 C         141.7066  141.0731  166.6630 C.ar    1  UNL1        0.0522
      3 C         142.9238  141.9126  166.9152 C.ar    1  UNL1        0.1515
      4 N         143.1163  142.5734  168.2480 N.ar    1  UNL1       -0.1329
      5 N         142.0915  142.3946  169.3287 N.ar    1  UNL1       -0.1409
      6 C         140.8743  141.5551  169.0766 C.ar    1  UNL1        0.1691
      7 C         139.8495  141.3763  170.1573 C.2     1  UNL1        0.2635
      8 N         139.3307  142.5695  170.9037 N.am    1  UNL1       -0.3240
      9 O         139.3436  140.0043  170.4916 O.2     1  UNL1       -0.2686
     10 H         139.6627  143.4699  170.6843 H       1  UNL1        0.1453
     11 H         138.6581  142.4521  171.6130 H       1  UNL1        0.1453
     12 N         139.4646  140.0548  167.4917 N.pl3   1  UNL1       -0.2965
     13 H         138.9304  139.7224  168.2489 H       1  UNL1        0.1537
     14 C         138.0110  140.4326  163.8182 C.ar    1  UNL1        0.0941
     15 N         138.4144  140.7655  165.2240 N.ar    1  UNL1       -0.2319
     16 C         139.0612  139.7219  166.0858 C.ar    1  UNL1        0.1320
     17 C         139.3045  138.3454  165.5417 C.ar    1  UNL1        0.0375
     18 C         138.9011  138.0125  164.1359 C.ar    1  UNL1        0.0410
     19 C         138.2544  139.0561  163.2741 C.ar    1  UNL1        0.1522
     20 O         137.8510  138.7231  161.8682 O.3     1  UNL1       -0.4702
     21 C         138.8894  138.6444  160.7887 C.3     1  UNL1        0.2525
     22 C         137.3643  141.4762  162.9564 C.3     1  UNL1        0.0490
     23 C         137.8478  143.9531  163.5736 C.3     1  UNL1        0.0004
     24 C         138.0751  142.7683  162.6822 C.3     1  UNL1        0.0064
     25 N         143.9486  142.0914  165.8345 N.pl3   1  UNL1       -0.3170
     26 H         144.8469  141.7022  165.9387 H       1  UNL1        0.1482
     27 C         143.6046  142.8631  164.5951 C.3     1  UNL1        0.0845
     28 C         142.3140  143.6236  164.5191 C.3     1  UNL1        0.0209
     29 C         141.9701  144.3954  163.2796 C.3     1  UNL1        0.0018
     30 C         142.9168  144.4065  162.1162 C.3     1  UNL1        0.0015
     31 C         144.2075  143.6460  162.1922 C.3     1  UNL1        0.0172
     32 C         144.5514  142.8743  163.4316 C.3     1  UNL1        0.0689
     33 N         145.8421  142.1137  163.5076 N.3     1  UNL1       -0.3209
     34 H         145.9115  141.6516  164.4143 H       1  UNL1        0.1189
     35 H         146.6240  142.7588  163.3941 H       1  UNL1        0.1189
@<TRIPOS>BOND
     1    23    24    1
     2    24    22    1
     3    22    14    1
     4    14    15   ar
     5    15    16   ar
     6    16    12    1
     7    12     1    1
     8     1     2   ar
     9     2     3   ar
    10     3    25    1
    11    27    25    1
    12    27    28    1
    13    28    29    1
    14    29    30    1
    15    30    31    1
    16    31    32    1
    17    32    33    1
    18     3     4   ar
    19     4     5   ar
    20     5     6   ar
    21     6     7    1
    22     7     8   am
    23     7     9    2
    24    16    17   ar
    25    17    18   ar
    26    18    19   ar
    27    19    20    1
    28    20    21    1
    29    19    14   ar
    30     6     1   ar
    31    32    27    1
    32    12    13    1
    33    25    26    1
    34    33    34    1
    35    33    35    1
    36     8    10    1
    37     8    11    1
@<TRIPOS>MOLECULE
*****
 35 37 0 0 0
SMALL
GASTEIGER

@<TRIPOS>ATOM
      1 C         139.9144  143.4506  162.7964 C.ar    1  UNL1        0.0764
      2 C         139.3910  142.0906  163.1520 C.ar    1  UNL1        0.0522
      3 C         138.5614  141.3245  162.1648 C.ar    1  UNL1        0.1515
      4 N         138.2550  141.9185  160.8218 N.ar    1  UNL1       -0.1329
      5 N         138.7783  143.2785  160.4662 N.ar    1  UNL1       -0.1409
      6 C         139.6080  144.0445  161.4535 C.ar    1  UNL1        0.1691
      7 C         140.1313  145.4046  161.0978 C.2     1  UNL1        0.2635
      8 N         141.5250  145.5560  160.5643 N.am    1  UNL1       -0.3240
      9 O         139.2609  146.6132  161.2757 O.2     1  UNL1       -0.2686
     10 H         142.0963  144.7628  160.4476 H       1  UNL1        0.1453
     11 H         141.8684  146.4487  160.3309 H       1  UNL1        0.1453
     12 N         140.7441  144.2167  163.7836 N.pl3   1  UNL1       -0.2965
     13 H         140.8945  145.1814  163.6566 H       1  UNL1        0.1537
     14 C         141.0897  142.4679  167.3294 C.ar    1  UNL1        0.0941
     15 N         140.4893  143.1715  166.1485 N.ar    1  UNL1       -0.2319
     16 C         141.3445  143.5131  164.9645 C.ar    1  UNL1        0.1320
     17 C         142.8002  143.1511  164.9613 C.ar    1  UNL1        0.0375
     18 C         143.4006  142.4475  166.1422 C.ar    1  UNL1        0.0410
     19 C         142.5453  142.1059  167.3262 C.ar    1  UNL1        0.1522
     20 O         143.1458  141.4022  168.5071 O.3     1  UNL1       -0.4702
     21 C         143.7089  142.1976  169.6474 C.3     1  UNL1        0.2525
     22 C         140.2345  142.1263  168.5134 C.3     1  UNL1        0.0490
     23 C         138.8675  140.3800  169.8667 C.3     1  UNL1        0.0004
     24 C         139.8170  140.7055  168.7521 C.3     1  UNL1        0.0064
     25 N         138.0380  139.9645  162.5204 N.pl3   1  UNL1       -0.3170
     26 H         137.1078  139.7235  162.3061 H       1  UNL1        0.1482
     27 C         138.9320  138.9717  163.2024 C.3     1  UNL1        0.0845
     28 C         139.9573  138.2169  162.4093 C.3     1  UNL1        0.0209
     29 C         140.8513  137.2241  163.0914 C.3     1  UNL1        0.0018
     30 C         140.7199  136.9861  164.5665 C.3     1  UNL1        0.0015
     31 C         139.6946  137.7408  165.3596 C.3     1  UNL1        0.0172
     32 C         138.8006  138.7336  164.6776 C.3     1  UNL1        0.0689
     33 N         137.7753  139.4884  165.4707 N.3     1  UNL1       -0.3209
     34 H         137.2606  140.1151  164.8520 H       1  UNL1        0.1189
     35 H         138.2406  140.0336  166.1964 H       1  UNL1        0.1189
@<TRIPOS>BOND
     1    23    24    1
     2    24    22    1
     3    22    14    1
     4    14    15   ar
     5    15    16   ar
     6    16    12    1
     7    12     1    1
     8     1     2   ar
     9     2     3   ar
    10     3    25    1
    11    27    25    1
    12    27    28    1
    13    28    29    1
    14    29    30    1
    15    30    31    1
    16    31    32    1
    17    32    33    1
    18     3     4   ar
    19     4     5   ar
    20     5     6   ar
    21     6     7    1
    22     7     8   am
    23     7     9    2
    24    16    17   ar
    25    17    18   ar
    26    18    19   ar
    27    19    20    1
    28    20    21    1
    29    19    14   ar
    30     6     1   ar
    31    32    27    1
    32    12    13    1
    33    25    26    1
    34    33    34    1
    35    33    35    1
    36     8    10    1
    37     8    11    1
@<TRIPOS>MOLECULE
*****
 35 37 0 0 0
SMALL
GASTEIGER

@<TRIPOS>ATOM
      1 C         140.1377  141.0618  167.8755 C.ar    1  UNL1        0.0764
      2 C         139.6599  140.3382  166.6515 C.ar    1  UNL1        0.0522
      3 C         138.6163  139.2676  166.7727 C.ar    1  UNL1        0.1515
      4 N         138.0505  138.9206  168.1179 N.ar    1  UNL1       -0.1329
      5 N         138.5283  139.6442  169.3418 N.ar    1  UNL1       -0.1409
      6 C         139.5719  140.7148  169.2206 C.ar    1  UNL1        0.1691
      7 C         140.0497  141.4384  170.4446 C.2     1  UNL1        0.2635
      8 N         140.6141  140.6661  171.6000 N.am    1  UNL1       -0.3240
      9 O         139.9631  142.9344  170.5132 O.2     1  UNL1       -0.2686
     10 H         140.6709  139.6843  171.5550 H       1  UNL1        0.1453
     11 H         140.9277  141.1411  172.4034 H       1  UNL1        0.1453
     12 N         141.1813  142.1324  167.7543 N.pl3   1  UNL1       -0.2965
     13 H         141.5065  142.5963  168.5595 H       1  UNL1        0.1537
     14 C         143.6768  142.4669  164.6866 C.ar    1  UNL1        0.0941
     15 N         143.1286  142.1032  166.0345 N.ar    1  UNL1       -0.2319
     16 C         141.7295  142.4963  166.4062 C.ar    1  UNL1        0.1320
     17 C         140.8787  143.2531  165.4299 C.ar    1  UNL1        0.0375
     18 C         141.4269  143.6169  164.0820 C.ar    1  UNL1        0.0410
     19 C         142.8259  143.2238  163.7103 C.ar    1  UNL1        0.1522
     20 O         143.3741  143.5876  162.3622 O.3     1  UNL1       -0.4702
     21 C         143.0858  142.7169  161.1754 C.3     1  UNL1        0.2525
     22 C         145.0758  142.0738  164.3149 C.3     1  UNL1        0.0490
     23 C         144.2227  139.7521  163.5201 C.3     1  UNL1        0.0004
     24 C         145.3332  140.7514  163.6555 C.3     1  UNL1        0.0064
     25 N         138.1385  138.5440  165.5487 N.pl3   1  UNL1       -0.3170
     26 H         137.3059  138.0196  165.5805 H       1  UNL1        0.1482
     27 C         138.9293  138.6194  164.2764 C.3     1  UNL1        0.0845
     28 C         140.0908  137.6954  164.0593 C.3     1  UNL1        0.0209
     29 C         140.8816  137.7708  162.7869 C.3     1  UNL1        0.0018
     30 C         140.5108  138.7702  161.7316 C.3     1  UNL1        0.0015
     31 C         139.3493  139.6942  161.9486 C.3     1  UNL1        0.0172
     32 C         138.5585  139.6188  163.2210 C.3     1  UNL1        0.0689
     33 N         137.3970  140.5428  163.4380 N.3     1  UNL1       -0.3209
     34 H         136.9783  140.3544  164.3488 H       1  UNL1        0.1189
     35 H         136.7019  140.3928  162.7067 H       1  UNL1        0.1189
@<TRIPOS>BOND
     1    23    24    1
     2    24    22    1
     3    22    14    1
     4    14    15   ar
     5    15    16   ar
     6    16    12    1
     7    12     1    1
     8     1     2   ar
     9     2     3   ar
    10     3    25    1
    11    27    25    1
    12    27    28    1
    13    28    29    1
    14    29    30    1
    15    30    31    1
    16    31    32    1
    17    32    33    1
    18     3     4   ar
    19     4     5   ar
    20     5     6   ar
    21     6     7    1
    22     7     8   am
    23     7     9    2
    24    16    17   ar
    25    17    18   ar
    26    18    19   ar
    27    19    20    1
    28    20    21    1
    29    19    14   ar
    30     6     1   ar
    31    32    27    1
    32    12    13    1
    33    25    26    1
    34    33    34    1
    35    33    35    1
    36     8    10    1
    37     8    11    1
@<TRIPOS>MOLECULE
*****
 35 37 0 0 0
SMALL
GASTEIGER

@<TRIPOS>ATOM
      1 C         143.7129  141.3028  165.4205 C.ar    1  UNL1        0.0764
      2 C         143.0490  140.9565  166.7203 C.ar    1  UNL1        0.0522
      3 C         142.9638  139.5252  167.1610 C.ar    1  UNL1        0.1515
      4 N         143.5426  138.4402  166.3019 N.ar    1  UNL1       -0.1329
      5 N         144.2065  138.7865  165.0022 N.ar    1  UNL1       -0.1409
      6 C         144.2917  140.2178  164.5615 C.ar    1  UNL1        0.1691
      7 C         144.9556  140.5641  163.2617 C.2     1  UNL1        0.2635
      8 N         144.5720  139.8378  162.0067 N.am    1  UNL1       -0.3240
      9 O         146.0032  141.6367  163.2171 O.2     1  UNL1       -0.2686
     10 H         143.8844  139.1338  162.0360 H       1  UNL1        0.1453
     11 H         145.0077  140.0651  161.1536 H       1  UNL1        0.1453
     12 N         143.7981  142.7340  164.9798 N.pl3   1  UNL1       -0.2965
     13 H         144.5695  143.2855  165.2444 H       1  UNL1        0.1537
     14 C         140.3131  144.3092  163.9195 C.ar    1  UNL1        0.0941
     15 N         141.4034  143.7182  164.7634 N.ar    1  UNL1       -0.2319
     16 C         142.7079  143.3251  164.1359 C.ar    1  UNL1        0.1320
     17 C         142.9222  143.5230  162.6645 C.ar    1  UNL1        0.0375
     18 C         141.8319  144.1140  161.8207 C.ar    1  UNL1        0.0410
     19 C         140.5274  144.5071  162.4482 C.ar    1  UNL1        0.1522
     20 O         139.4372  145.0981  161.6043 O.3     1  UNL1       -0.4702
     21 C         139.4421  146.5653  161.2923 C.3     1  UNL1        0.2525
     22 C         139.0086  144.7023  164.5470 C.3     1  UNL1        0.0490
     23 C         137.6149  142.7201  163.6098 C.3     1  UNL1        0.0004
     24 C         137.9215  143.6831  164.7182 C.3     1  UNL1        0.0064
     25 N         142.2999  139.1789  168.4607 N.pl3   1  UNL1       -0.3170
     26 H         142.3311  138.2547  168.7984 H       1  UNL1        0.1482
     27 C         141.5885  140.2407  169.2457 C.3     1  UNL1        0.0845
     28 C         140.1305  140.5000  169.0068 C.3     1  UNL1        0.0209
     29 C         139.4191  141.5619  169.7919 C.3     1  UNL1        0.0018
     30 C         140.1657  142.3644  170.8159 C.3     1  UNL1        0.0015
     31 C         141.6236  142.1051  171.0548 C.3     1  UNL1        0.0172
     32 C         142.3350  141.0433  170.2698 C.3     1  UNL1        0.0689
     33 N         143.7930  140.7840  170.5087 N.3     1  UNL1       -0.3209
     34 H         144.1105  140.0351  169.8932 H       1  UNL1        0.1189
     35 H         143.9346  140.5084  171.4805 H       1  UNL1        0.1189
@<TRIPOS>BOND
     1    23    24    1
     2    24    22    1
     3    22    14    1
     4    14    15   ar
     5    15    16   ar
     6    16    12    1
     7    12     1    1
     8     1     2   ar
     9     2     3   ar
    10     3    25    1
    11    27    25    1
    12    27    28    1
    13    28    29    1
    14    29    30    1
    15    30    31    1
    16    31    32    1
    17    32    33    1
    18     3     4   ar
    19     4     5   ar
    20     5     6   ar
    21     6     7    1
    22     7     8   am
    23     7     9    2
    24    16    17   ar
    25    17    18   ar
    26    18    19   ar
    27    19    20    1
    28    20    21    1
    29    19    14   ar
    30     6     1   ar
    31    32    27    1
    32    12    13    1
    33    25    26    1
    34    33    34    1
    35    33    35    1
    36     8    10    1
    37     8    11    1
@<TRIPOS>MOLECULE
*****
 35 37 0 0 0
SMALL
GASTEIGER

@<TRIPOS>ATOM
      1 C         141.6625  140.7938  167.4826 C.ar    1  UNL1        0.0764
      2 C         140.7198  140.3750  166.3935 C.ar    1  UNL1        0.0522
      3 C         139.4102  139.7318  166.7414 C.ar    1  UNL1        0.1515
      4 N         139.0432  139.5073  168.1785 N.ar    1  UNL1       -0.1329
      5 N         139.9858  139.9261  169.2675 N.ar    1  UNL1       -0.1409
      6 C         141.2955  140.5693  168.9196 C.ar    1  UNL1        0.1691
      7 C         142.2381  140.9881  170.0087 C.2     1  UNL1        0.2635
      8 N         142.6123  140.0188  171.0905 N.am    1  UNL1       -0.3240
      9 O         142.8066  142.3762  170.0159 O.2     1  UNL1       -0.2686
     10 H         142.2392  139.1078  171.0858 H       1  UNL1        0.1453
     11 H         143.2309  140.2937  171.8053 H       1  UNL1        0.1453
     12 N         142.9722  141.4370  167.1347 N.pl3   1  UNL1       -0.2965
     13 H         143.7035  141.4522  167.7936 H       1  UNL1        0.1537
     14 C         142.5933  143.9075  164.0520 C.ar    1  UNL1        0.0941
     15 N         142.3980  143.2875  165.4038 N.ar    1  UNL1       -0.2319
     16 C         143.1675  142.0570  165.7828 C.ar    1  UNL1        0.1320
     17 C         144.1324  141.4465  164.8101 C.ar    1  UNL1        0.0375
     18 C         144.3277  142.0665  163.4583 C.ar    1  UNL1        0.0410
     19 C         143.5582  143.2970  163.0792 C.ar    1  UNL1        0.1522
     20 O         143.7535  143.9170  161.7273 O.3     1  UNL1       -0.4702
     21 C         143.1780  143.2572  160.5094 C.3     1  UNL1        0.2525
     22 C         141.8238  145.1380  163.6729 C.3     1  UNL1        0.0490
     23 C         139.9668  146.0275  162.0884 C.3     1  UNL1        0.0004
     24 C         140.4519  145.0115  163.0797 C.3     1  UNL1        0.0064
     25 N         138.4675  139.3130  165.6524 N.pl3   1  UNL1       -0.3170
     26 H         138.0112  138.4422  165.7042 H       1  UNL1        0.1482
     27 C         138.2202  140.2210  164.4844 C.3     1  UNL1        0.0845
     28 C         137.9690  141.6824  164.7105 C.3     1  UNL1        0.0209
     29 C         137.7217  142.5905  163.5424 C.3     1  UNL1        0.0018
     30 C         137.7255  142.0370  162.1482 C.3     1  UNL1        0.0015
     31 C         137.9767  140.5756  161.9221 C.3     1  UNL1        0.0172
     32 C         138.2241  139.6676  163.0901 C.3     1  UNL1        0.0689
     33 N         138.4753  138.2062  162.8640 N.3     1  UNL1       -0.3209
     34 H         138.6223  137.7437  163.7612 H       1  UNL1        0.1189
     35 H         139.3045  138.0899  162.2816 H       1  UNL1        0.1189
@<TRIPOS>BOND
     1    23    24    1
     2    24    22    1
     3    22    14    1
     4    14    15   ar
     5    15    16   ar
     6    16    12    1
     7    12     1    1
     8     1     2   ar
     9     2     3   ar
    10     3    25    1
    11    27    25    1
    12    27    28    1
    13    28    29    1
    14    29    30    1
    15    30    31    1
    16    31    32    1
    17    32    33    1
    18     3     4   ar
    19     4     5   ar
    20     5     6   ar
    21     6     7    1
    22     7     8   am
    23     7     9    2
    24    16    17   ar
    25    17    18   ar
    26    18    19   ar
    27    19    20    1
    28    20    21    1
    29    19    14   ar
    30     6     1   ar
    31    32    27    1
    32    12    13    1
    33    25    26    1
    34    33    34    1
    35    33    35    1
    36     8    10    1
    37     8    11    1
@<TRIPOS>MOLECULE
*****
 35 37 0 0 0
SMALL
GASTEIGER

@<TRIPOS>ATOM
      1 C         140.8013  140.1116  167.5506 C.ar    1  UNL1        0.0764
      2 C         141.6252  139.5677  166.4212 C.ar    1  UNL1        0.0522
      3 C         142.8970  138.8267  166.7098 C.ar    1  UNL1        0.1515
      4 N         143.3449  138.6296  168.1278 N.ar    1  UNL1       -0.1329
      5 N         142.5210  139.1734  169.2571 N.ar    1  UNL1       -0.1409
      6 C         141.2492  139.9144  168.9685 C.ar    1  UNL1        0.1691
      7 C         140.4252  140.4583  170.0978 C.2     1  UNL1        0.2635
      8 N         140.0376  139.5672  171.2404 N.am    1  UNL1       -0.3240
      9 O         139.9889  141.8934  170.0845 O.2     1  UNL1       -0.2686
     10 H         140.3240  138.6253  171.2491 H       1  UNL1        0.1453
     11 H         139.4968  139.9241  171.9816 H       1  UNL1        0.1453
     12 N         139.5294  140.8526  167.2619 N.pl3   1  UNL1       -0.2965
     13 H         138.8109  140.8779  167.9346 H       1  UNL1        0.1537
     14 C         138.3104  141.6501  163.5703 C.ar    1  UNL1        0.0941
     15 N         138.4876  140.9477  164.8837 N.ar    1  UNL1       -0.2319
     16 C         139.3522  141.5551  165.9484 C.ar    1  UNL1        0.1320
     17 C         140.0396  142.8648  165.6996 C.ar    1  UNL1        0.0375
     18 C         139.8624  143.5672  164.3862 C.ar    1  UNL1        0.0410
     19 C         138.9978  142.9598  163.3215 C.ar    1  UNL1        0.1522
     20 O         138.8206  143.6623  162.0080 O.3     1  UNL1       -0.4702
     21 C         139.8612  143.5231  160.9367 C.3     1  UNL1        0.2525
     22 C         137.4458  141.0427  162.5056 C.3     1  UNL1        0.0490
     23 C         138.0043  138.5480  162.0422 C.3     1  UNL1        0.0004
     24 C         138.0019  139.9821  161.6024 C.3     1  UNL1        0.0064
     25 N         143.7210  138.2828  165.5806 N.pl3   1  UNL1       -0.3170
     26 H         144.0765  137.3660  165.6277 H       1  UNL1        0.1482
     27 C         144.0032  139.1358  164.3795 C.3     1  UNL1        0.0845
     28 C         144.9794  140.2704  164.4780 C.3     1  UNL1        0.0209
     29 C         145.2615  141.1235  163.2768 C.3     1  UNL1        0.0018
     30 C         144.5675  140.8419  161.9772 C.3     1  UNL1        0.0015
     31 C         143.5913  139.7073  161.8787 C.3     1  UNL1        0.0172
     32 C         143.3091  138.8543  163.0798 C.3     1  UNL1        0.0689
     33 N         142.3329  137.7197  162.9813 N.3     1  UNL1       -0.3209
     34 H         142.2641  137.2510  163.8846 H       1  UNL1        0.1189
     35 H         142.6538  137.0552  162.2770 H       1  UNL1        0.1189
@<TRIPOS>BOND
     1    23    24    1
     2    24    22    1
     3    22    14    1
     4    14    15   ar
     5    15    16   ar
     6    16    12    1
     7    12     1    1
     8     1     2   ar
     9     2     3   ar
    10     3    25    1
    11    27    25    1
    12    27    28    1
    13    28    29    1
    14    29    30    1
    15    30    31    1
    16    31    32    1
    17    32    33    1
    18     3     4   ar
    19     4     5   ar
    20     5     6   ar
    21     6     7    1
    22     7     8   am
    23     7     9    2
    24    16    17   ar
    25    17    18   ar
    26    18    19   ar
    27    19    20    1
    28    20    21    1
    29    19    14   ar
    30     6     1   ar
    31    32    27    1
    32    12    13    1
    33    25    26    1
    34    33    34    1
    35    33    35    1
    36     8    10    1
    37     8    11    1
