@<TRIPOS>MOLECULE
*****
 39 44 0 0 0
SMALL
GASTEIGER

@<TRIPOS>ATOM
      1 C         140.3202  145.3893  158.5079 C.3     1  UNL1        0.0294
      2 C         140.1601  144.2964  157.4928 C.3     1  UNL1        0.0666
      3 S         139.1608  143.2014  157.7210 S.3     1  UNL1       -0.0756
      4 C         139.4833  140.9417  160.8604 C.ar    1  UNL1        0.1669
      5 N         138.4971  141.9652  161.3400 N.ar    1  UNL1       -0.1282
      6 N         138.2563  142.9362  160.2223 N.ar    1  UNL1       -0.1221
      7 C         139.0936  142.5129  159.0520 C.ar    1  UNL1        0.1932
      8 N         139.8519  141.2803  159.4464 N.ar    1  UNL1       -0.2884
      9 C         140.8107  140.5197  158.5790 C.3     1  UNL1        0.1340
     10 C         137.9056  138.7332  167.1758 C.3     1  UNL1        0.0521
     11 C         138.4313  138.9958  165.7956 C.ar    1  UNL1        0.0593
     12 C         137.9060  140.1543  165.0007 C.ar    1  UNL1        0.0147
     13 C         138.4318  140.4168  163.6206 C.ar    1  UNL1        0.0028
     14 C         139.4828  139.5207  163.0354 C.ar    1  UNL1        0.0206
     15 C         140.0086  139.7833  161.6553 C.ar    1  UNL1        0.0374
     16 C         141.0596  138.8872  161.0702 C.ar    1  UNL1        0.0031
     17 C         141.5849  137.7287  161.8651 C.ar    1  UNL1        0.0016
     18 C         141.0592  137.4662  163.2451 C.ar    1  UNL1        0.0191
     19 C         140.0081  138.3622  163.8303 C.ar    1  UNL1        0.0810
     20 N         139.4824  138.0997  165.2105 N.ar    1  UNL1       -0.2497
     21 C         141.4661  145.3526  159.4750 C.3     1  UNL1        0.0730
     22 N         141.2837  144.7377  160.8310 N.3     1  UNL1       -0.2720
     23 C         140.2955  145.4221  161.7283 C.3     1  UNL1        0.0768
     24 C         139.8931  145.0576  163.1267 C.3     1  UNL1        0.0434
     25 C         140.3796  143.9187  163.9729 C.ar    1  UNL1       -0.0217
     26 C         139.7171  143.9141  165.3187 C.ar    1  UNL1       -0.0028
     27 C         140.0636  142.8538  166.3216 C.ar    1  UNL1        0.0220
     28 C         141.0725  141.7981  165.9787 C.ar    1  UNL1        0.1185
     29 N         141.6121  140.6348  166.7569 N.ar    1  UNL1       -0.2050
     30 C         142.6080  139.9204  165.8921 C.ar    1  UNL1        0.3031
     31 O         142.6840  140.6423  164.5793 O.2     1  UNL1       -0.4321
     32 C         141.7350  141.8027  164.6329 C.ar    1  UNL1        0.1604
     33 C         141.3885  142.8630  163.6300 C.ar    1  UNL1        0.0114
     34 C         142.1602  142.6855  162.3561 C.3     1  UNL1        0.0465
     35 C         142.1135  143.5199  161.1104 C.3     1  UNL1        0.0769
     36 C         143.3906  138.6988  166.2730 C.3     1  UNL1        0.4696
     37 F         144.1732  137.4771  166.6539 F       1  UNL1       -0.1619
     38 F         142.9997  138.8958  167.7077 F       1  UNL1       -0.1619
     39 F         143.7814  138.5018  164.8382 F       1  UNL1       -0.1619
@<TRIPOS>BOND
     1    10    11    1
     2    11    12   ar
     3    12    13   ar
     4    13    14   ar
     5    14    15   ar
     6    15     4    1
     7     4     5   ar
     8     5     6   ar
     9     6     7   ar
    10     7     3    1
    11     3     2    1
    12     2     1    1
    13     1    21    1
    14    21    22    1
    15    22    23    1
    16    23    24    1
    17    24    25    1
    18    25    26   ar
    19    26    27   ar
    20    27    28   ar
    21    28    29   ar
    22    29    30   ar
    23    30    36    1
    24    36    37    1
    25    36    38    1
    26    36    39    1
    27    30    31   ar
    28    31    32   ar
    29    32    33   ar
    30    33    34    1
    31    34    35    1
    32     7     8   ar
    33     8     9    1
    34    15    16   ar
    35    16    17   ar
    36    17    18   ar
    37    18    19   ar
    38    19    20   ar
    39    20    11   ar
    40    19    14   ar
    41     8     4   ar
    42    35    22    1
    43    33    25   ar
    44    32    28   ar
@<TRIPOS>MOLECULE
*****
 39 44 0 0 0
SMALL
GASTEIGER

@<TRIPOS>ATOM
      1 C         141.9280  142.6245  157.8768 C.3     1  UNL1        0.0294
      2 C         143.3035  143.2093  158.0043 C.3     1  UNL1        0.0666
      3 S         144.3346  142.5235  158.8506 S.3     1  UNL1       -0.0756
      4 C         143.5442  141.4484  162.4955 C.ar    1  UNL1        0.1669
      5 N         144.0158  142.8570  162.7046 N.ar    1  UNL1       -0.1282
      6 N         144.3692  143.4311  161.3646 N.ar    1  UNL1       -0.1221
      7 C         144.1161  142.3774  160.3275 C.ar    1  UNL1        0.1932
      8 N         143.6062  141.1521  161.0264 N.ar    1  UNL1       -0.2884
      9 C         143.2252  139.8576  160.3713 C.3     1  UNL1        0.1340
     10 C         143.1240  142.2374  169.3111 C.3     1  UNL1        0.0521
     11 C         143.1156  141.8037  167.8751 C.ar    1  UNL1        0.0593
     12 C         143.5695  142.7497  166.8032 C.ar    1  UNL1        0.0147
     13 C         143.5610  142.3159  165.3673 C.ar    1  UNL1        0.0028
     14 C         143.0987  140.9362  165.0033 C.ar    1  UNL1        0.0206
     15 C         143.0903  140.5024  163.5674 C.ar    1  UNL1        0.0374
     16 C         142.6280  139.1227  163.2035 C.ar    1  UNL1        0.0031
     17 C         142.1741  138.1766  164.2754 C.ar    1  UNL1        0.0016
     18 C         142.1826  138.6104  165.7112 C.ar    1  UNL1        0.0191
     19 C         142.6448  139.9901  166.0752 C.ar    1  UNL1        0.0810
     20 N         142.6532  140.4239  167.5112 N.ar    1  UNL1       -0.2497
     21 C         140.7677  143.2795  158.5658 C.3     1  UNL1        0.0730
     22 N         140.5525  143.0700  160.0354 N.3     1  UNL1       -0.2720
     23 C         140.8924  144.2361  160.9156 C.3     1  UNL1        0.0768
     24 C         140.7896  144.3423  162.4084 C.3     1  UNL1        0.0434
     25 C         140.3215  143.3088  163.3894 C.ar    1  UNL1       -0.0217
     26 C         140.3756  143.8250  164.7968 C.ar    1  UNL1       -0.0028
     27 C         139.9487  142.9461  165.9349 C.ar    1  UNL1        0.0220
     28 C         139.4678  141.5510  165.6658 C.ar    1  UNL1        0.1185
     29 N         138.9860  140.4619  166.5777 N.ar    1  UNL1       -0.2050
     30 C         138.6342  139.2726  165.7340 C.ar    1  UNL1        0.3031
     31 O         138.8985  139.6266  164.3005 O.2     1  UNL1       -0.4321
     32 C         139.4137  141.0348  164.2583 C.ar    1  UNL1        0.1604
     33 C         139.8406  141.9137  163.1202 C.ar    1  UNL1        0.0114
     34 C         139.7090  141.2076  161.8034 C.3     1  UNL1        0.0465
     35 C         140.0258  141.7223  160.4305 C.3     1  UNL1        0.0769
     36 C         138.1101  137.9597  166.2356 C.3     1  UNL1        0.4696
     37 F         137.5859  136.6468  166.7373 F       1  UNL1       -0.1619
     38 F         138.9732  137.2365  165.2447 F       1  UNL1       -0.1619
     39 F         137.2469  138.6829  167.2266 F       1  UNL1       -0.1619
@<TRIPOS>BOND
     1    10    11    1
     2    11    12   ar
     3    12    13   ar
     4    13    14   ar
     5    14    15   ar
     6    15     4    1
     7     4     5   ar
     8     5     6   ar
     9     6     7   ar
    10     7     3    1
    11     3     2    1
    12     2     1    1
    13     1    21    1
    14    21    22    1
    15    22    23    1
    16    23    24    1
    17    24    25    1
    18    25    26   ar
    19    26    27   ar
    20    27    28   ar
    21    28    29   ar
    22    29    30   ar
    23    30    36    1
    24    36    37    1
    25    36    38    1
    26    36    39    1
    27    30    31   ar
    28    31    32   ar
    29    32    33   ar
    30    33    34    1
    31    34    35    1
    32     7     8   ar
    33     8     9    1
    34    15    16   ar
    35    16    17   ar
    36    17    18   ar
    37    18    19   ar
    38    19    20   ar
    39    20    11   ar
    40    19    14   ar
    41     8     4   ar
    42    35    22    1
    43    33    25   ar
    44    32    28   ar
@<TRIPOS>MOLECULE
*****
 39 44 0 0 0
SMALL
GASTEIGER

@<TRIPOS>ATOM
      1 C         144.3041  142.2019  158.8404 C.3     1  UNL1        0.0294
      2 C         143.4104  143.2210  158.1978 C.3     1  UNL1        0.0666
      3 S         141.9245  143.1410  158.3867 S.3     1  UNL1       -0.0756
      4 C         140.6242  141.9655  161.8499 C.ar    1  UNL1        0.1669
      5 N         140.3465  140.7543  161.0096 N.ar    1  UNL1       -0.1282
      6 N         140.7998  141.0473  159.6101 N.ar    1  UNL1       -0.1221
      7 C         141.3577  142.4395  159.5854 C.ar    1  UNL1        0.1932
      8 N         141.2491  143.0069  160.9696 N.ar    1  UNL1       -0.2884
      9 C         141.6884  144.3756  161.3983 C.3     1  UNL1        0.1340
     10 C         137.9900  137.5070  166.3701 C.3     1  UNL1        0.0521
     11 C         138.5747  138.6577  165.6059 C.ar    1  UNL1        0.0593
     12 C         138.8701  138.5133  164.1423 C.ar    1  UNL1        0.0147
     13 C         139.4548  139.6641  163.3782 C.ar    1  UNL1        0.0028
     14 C         139.7441  140.9591  164.0775 C.ar    1  UNL1        0.0206
     15 C         140.3289  142.1099  163.3133 C.ar    1  UNL1        0.0374
     16 C         140.6182  143.4049  164.0127 C.ar    1  UNL1        0.0031
     17 C         140.3228  143.5492  165.4763 C.ar    1  UNL1        0.0016
     18 C         139.7381  142.3986  166.2404 C.ar    1  UNL1        0.0191
     19 C         139.4488  141.1035  165.5411 C.ar    1  UNL1        0.0810
     20 N         138.8640  139.9528  166.3053 N.ar    1  UNL1       -0.2497
     21 C         144.9886  142.5160  160.1375 C.3     1  UNL1        0.0730
     22 N         144.5001  141.8956  161.4129 N.3     1  UNL1       -0.2720
     23 C         144.0354  140.4731  161.3082 C.3     1  UNL1        0.0768
     24 C         143.4967  139.5834  162.3891 C.3     1  UNL1        0.0434
     25 C         143.2897  139.8962  163.8413 C.ar    1  UNL1       -0.0217
     26 C         142.7264  138.7189  164.5807 C.ar    1  UNL1       -0.0028
     27 C         142.4436  138.8214  166.0502 C.ar    1  UNL1        0.0220
     28 C         142.7240  140.1013  166.7805 C.ar    1  UNL1        0.1185
     29 N         142.5487  140.4966  168.2167 N.ar    1  UNL1       -0.2050
     30 C         143.0036  141.9182  168.3652 C.ar    1  UNL1        0.3031
     31 O         143.4601  142.4016  167.0205 O.2     1  UNL1       -0.4321
     32 C         143.2873  141.2787  166.0411 C.ar    1  UNL1        0.1604
     33 C         143.5702  141.1761  164.5716 C.ar    1  UNL1        0.0114
     34 C         144.1270  142.4593  164.0298 C.3     1  UNL1        0.0465
     35 C         144.5408  142.7794  162.6240 C.3     1  UNL1        0.0769
     36 C         143.0023  142.7164  169.6351 C.3     1  UNL1        0.4696
     37 F         143.0008  143.5147  170.9051 F       1  UNL1       -0.1619
     38 F         144.3763  142.2077  169.9563 F       1  UNL1       -0.1619
     39 F         141.6282  143.2252  169.3139 F       1  UNL1       -0.1619
@<TRIPOS>BOND
     1    10    11    1
     2    11    12   ar
     3    12    13   ar
     4    13    14   ar
     5    14    15   ar
     6    15     4    1
     7     4     5   ar
     8     5     6   ar
     9     6     7   ar
    10     7     3    1
    11     3     2    1
    12     2     1    1
    13     1    21    1
    14    21    22    1
    15    22    23    1
    16    23    24    1
    17    24    25    1
    18    25    26   ar
    19    26    27   ar
    20    27    28   ar
    21    28    29   ar
    22    29    30   ar
    23    30    36    1
    24    36    37    1
    25    36    38    1
    26    36    39    1
    27    30    31   ar
    28    31    32   ar
    29    32    33   ar
    30    33    34    1
    31    34    35    1
    32     7     8   ar
    33     8     9    1
    34    15    16   ar
    35    16    17   ar
    36    17    18   ar
    37    18    19   ar
    38    19    20   ar
    39    20    11   ar
    40    19    14   ar
    41     8     4   ar
    42    35    22    1
    43    33    25   ar
    44    32    28   ar
@<TRIPOS>MOLECULE
*****
 39 44 0 0 0
SMALL
GASTEIGER

@<TRIPOS>ATOM
      1 C         139.7619  143.2089  157.4203 C.3     1  UNL1        0.0294
      2 C         139.7421  144.6450  157.8533 C.3     1  UNL1        0.0666
      3 S         140.8973  145.2119  158.6240 S.3     1  UNL1       -0.0756
      4 C         141.5175  144.5670  162.4010 C.ar    1  UNL1        0.1669
      5 N         140.3300  145.4820  162.4543 N.ar    1  UNL1       -0.1282
      6 N         139.9532  145.8349  161.0459 N.ar    1  UNL1       -0.1221
      7 C         140.9078  145.1380  160.1222 C.ar    1  UNL1        0.1932
      8 N         141.8745  144.3545  160.9597 N.ar    1  UNL1       -0.2884
      9 C         143.0007  143.5071  160.4460 C.3     1  UNL1        0.1340
     10 C         139.4525  139.8722  166.9775 C.3     1  UNL1        0.0521
     11 C         140.1453  140.8965  166.1285 C.ar    1  UNL1        0.0593
     12 C         139.4389  141.4940  164.9478 C.ar    1  UNL1        0.0147
     13 C         140.1318  142.5183  164.0989 C.ar    1  UNL1        0.0028
     14 C         141.5310  142.9452  164.4306 C.ar    1  UNL1        0.0206
     15 C         142.2238  143.9695  163.5816 C.ar    1  UNL1        0.0374
     16 C         143.6230  144.3963  163.9134 C.ar    1  UNL1        0.0031
     17 C         144.3294  143.7988  165.0941 C.ar    1  UNL1        0.0016
     18 C         143.6366  142.7746  165.9430 C.ar    1  UNL1        0.0191
     19 C         142.2374  142.3477  165.6113 C.ar    1  UNL1        0.0810
     20 N         141.5446  141.3233  166.4603 N.ar    1  UNL1       -0.2497
     21 C         138.6916  142.2691  157.8904 C.3     1  UNL1        0.0730
     22 N         138.9417  141.3774  159.0705 N.3     1  UNL1       -0.2720
     23 C         137.7923  140.5063  159.4831 C.3     1  UNL1        0.0768
     24 C         137.7255  139.5174  160.6091 C.3     1  UNL1        0.0434
     25 C         138.7914  139.1554  161.6003 C.ar    1  UNL1       -0.0217
     26 C         138.3099  138.1145  162.5671 C.ar    1  UNL1       -0.0028
     27 C         139.2245  137.6110  163.6442 C.ar    1  UNL1        0.0220
     28 C         140.6206  138.1484  163.7545 C.ar    1  UNL1        0.1185
     29 N         141.7406  137.8454  164.7051 N.ar    1  UNL1       -0.2050
     30 C         142.9143  138.6991  164.3259 C.ar    1  UNL1        0.3031
     31 O         142.5197  139.5297  163.1408 O.2     1  UNL1       -0.4321
     32 C         141.1021  139.1894  162.7876 C.ar    1  UNL1        0.1604
     33 C         140.1875  139.6928  161.7106 C.ar    1  UNL1        0.0114
     34 C         140.8624  140.7250  160.8567 C.3     1  UNL1        0.0465
     35 C         140.3079  141.4747  159.6818 C.3     1  UNL1        0.0769
     36 C         144.2483  138.7187  165.0113 C.3     1  UNL1        0.4696
     37 F         145.5824  138.7383  165.6969 F       1  UNL1       -0.1619
     38 F         144.8281  139.4870  163.8609 F       1  UNL1       -0.1619
     39 F         143.6685  137.9503  166.1618 F       1  UNL1       -0.1619
@<TRIPOS>BOND
     1    10    11    1
     2    11    12   ar
     3    12    13   ar
     4    13    14   ar
     5    14    15   ar
     6    15     4    1
     7     4     5   ar
     8     5     6   ar
     9     6     7   ar
    10     7     3    1
    11     3     2    1
    12     2     1    1
    13     1    21    1
    14    21    22    1
    15    22    23    1
    16    23    24    1
    17    24    25    1
    18    25    26   ar
    19    26    27   ar
    20    27    28   ar
    21    28    29   ar
    22    29    30   ar
    23    30    36    1
    24    36    37    1
    25    36    38    1
    26    36    39    1
    27    30    31   ar
    28    31    32   ar
    29    32    33   ar
    30    33    34    1
    31    34    35    1
    32     7     8   ar
    33     8     9    1
    34    15    16   ar
    35    16    17   ar
    36    17    18   ar
    37    18    19   ar
    38    19    20   ar
    39    20    11   ar
    40    19    14   ar
    41     8     4   ar
    42    35    22    1
    43    33    25   ar
    44    32    28   ar
@<TRIPOS>MOLECULE
*****
 39 44 0 0 0
SMALL
GASTEIGER

@<TRIPOS>ATOM
      1 C         143.7003  142.4835  159.0259 C.3     1  UNL1        0.0294
      2 C         142.7719  143.6325  158.7650 C.3     1  UNL1        0.0666
      3 S         141.3373  143.5500  159.1950 S.3     1  UNL1       -0.0756
      4 C         140.3645  141.4613  162.3186 C.ar    1  UNL1        0.1669
      5 N         140.5448  142.8218  162.9243 N.ar    1  UNL1       -0.1282
      6 N         140.9311  143.7697  161.8279 N.ar    1  UNL1       -0.1221
      7 C         140.9896  142.9952  160.5446 C.ar    1  UNL1        0.1932
      8 N         140.6395  141.5686  160.8480 N.ar    1  UNL1       -0.2884
      9 C         140.5754  140.4462  159.8549 C.3     1  UNL1        0.1340
     10 C         139.2509  140.3434  169.0090 C.3     1  UNL1        0.0521
     11 C         139.4325  140.3108  167.5203 C.ar    1  UNL1        0.0593
     12 C         139.8197  141.5593  166.7845 C.ar    1  UNL1        0.0147
     13 C         140.0013  141.5266  165.2959 C.ar    1  UNL1        0.0028
     14 C         139.7958  140.2456  164.5431 C.ar    1  UNL1        0.0206
     15 C         139.9774  140.2130  163.0544 C.ar    1  UNL1        0.0374
     16 C         139.7718  138.9319  162.3018 C.ar    1  UNL1        0.0031
     17 C         139.3846  137.6834  163.0377 C.ar    1  UNL1        0.0016
     18 C         139.2030  137.7161  164.5262 C.ar    1  UNL1        0.0191
     19 C         139.4086  138.9971  165.2789 C.ar    1  UNL1        0.0810
     20 N         139.2269  139.0297  166.7676 N.ar    1  UNL1       -0.2497
     21 C         144.6649  142.5442  160.1730 C.3     1  UNL1        0.0730
     22 N         144.3195  141.8920  161.4788 N.3     1  UNL1       -0.2720
     23 C         144.0570  140.4162  161.4198 C.3     1  UNL1        0.0768
     24 C         143.6924  139.4857  162.5384 C.3     1  UNL1        0.0434
     25 C         143.5003  139.8011  163.9921 C.ar    1  UNL1       -0.0217
     26 C         143.1386  138.5743  164.7759 C.ar    1  UNL1       -0.0028
     27 C         142.9019  138.6712  166.2539 C.ar    1  UNL1        0.0220
     28 C         143.0268  139.9950  166.9483 C.ar    1  UNL1        0.1185
     29 N         142.8537  140.3960  168.3833 N.ar    1  UNL1       -0.2050
     30 C         143.1084  141.8706  168.4865 C.ar    1  UNL1        0.3031
     31 O         143.4389  142.3810  167.1152 O.2     1  UNL1       -0.4321
     32 C         143.3885  141.2218  166.1645 C.ar    1  UNL1        0.1604
     33 C         143.6252  141.1248  164.6865 C.ar    1  UNL1        0.0114
     34 C         143.9732  142.4602  164.0985 C.3     1  UNL1        0.0465
     35 C         144.2822  142.8015  162.6709 C.3     1  UNL1        0.0769
     36 C         143.0439  142.6909  169.7406 C.3     1  UNL1        0.4696
     37 F         142.9795  143.5112  170.9949 F       1  UNL1       -0.1619
     38 F         141.5512  142.7665  169.6144 F       1  UNL1       -0.1619
     39 F         144.5367  142.6153  169.8668 F       1  UNL1       -0.1619
@<TRIPOS>BOND
     1    10    11    1
     2    11    12   ar
     3    12    13   ar
     4    13    14   ar
     5    14    15   ar
     6    15     4    1
     7     4     5   ar
     8     5     6   ar
     9     6     7   ar
    10     7     3    1
    11     3     2    1
    12     2     1    1
    13     1    21    1
    14    21    22    1
    15    22    23    1
    16    23    24    1
    17    24    25    1
    18    25    26   ar
    19    26    27   ar
    20    27    28   ar
    21    28    29   ar
    22    29    30   ar
    23    30    36    1
    24    36    37    1
    25    36    38    1
    26    36    39    1
    27    30    31   ar
    28    31    32   ar
    29    32    33   ar
    30    33    34    1
    31    34    35    1
    32     7     8   ar
    33     8     9    1
    34    15    16   ar
    35    16    17   ar
    36    17    18   ar
    37    18    19   ar
    38    19    20   ar
    39    20    11   ar
    40    19    14   ar
    41     8     4   ar
    42    35    22    1
    43    33    25   ar
    44    32    28   ar
@<TRIPOS>MOLECULE
*****
 39 44 0 0 0
SMALL
GASTEIGER

@<TRIPOS>ATOM
      1 C         142.6500  137.6301  159.8241 C.3     1  UNL1        0.0294
      2 C         142.7901  138.1891  158.4392 C.3     1  UNL1        0.0666
      3 S         141.7574  139.1368  157.9050 S.3     1  UNL1       -0.0756
      4 C         139.1130  140.4482  160.4256 C.ar    1  UNL1        0.1669
      5 N         138.2765  139.5394  159.5744 N.ar    1  UNL1       -0.1282
      6 N         139.1653  138.9376  158.5267 N.ar    1  UNL1       -0.1221
      7 C         140.5511  139.4744  158.7302 C.ar    1  UNL1        0.1932
      8 N         140.5187  140.4080  159.9038 N.ar    1  UNL1       -0.2884
      9 C         141.6871  141.1680  160.4583 C.3     1  UNL1        0.1340
     10 C         138.1583  138.7140  167.0083 C.3     1  UNL1        0.0521
     11 C         138.2759  139.3493  165.6545 C.ar    1  UNL1        0.0593
     12 C         138.7602  138.5421  164.4867 C.ar    1  UNL1        0.0147
     13 C         138.8778  139.1775  163.1330 C.ar    1  UNL1        0.0028
     14 C         138.5111  140.6201  162.9471 C.ar    1  UNL1        0.0206
     15 C         138.6288  141.2554  161.5934 C.ar    1  UNL1        0.0374
     16 C         138.2621  142.6980  161.4076 C.ar    1  UNL1        0.0031
     17 C         137.7779  143.5052  162.5755 C.ar    1  UNL1        0.0016
     18 C         137.6602  142.8699  163.9291 C.ar    1  UNL1        0.0191
     19 C         138.0269  141.4273  164.1150 C.ar    1  UNL1        0.0810
     20 N         137.9092  140.7920  165.4687 N.ar    1  UNL1       -0.2497
     21 C         143.7861  137.7431  160.7970 C.3     1  UNL1        0.0730
     22 N         143.6746  138.6626  161.9769 N.3     1  UNL1       -0.2720
     23 C         144.4489  139.9436  161.8791 C.3     1  UNL1        0.0768
     24 C         144.5433  141.0579  162.8789 C.3     1  UNL1        0.0434
     25 C         143.8869  141.1664  164.2231 C.ar    1  UNL1       -0.0217
     26 C         144.2468  142.4523  164.9066 C.ar    1  UNL1       -0.0028
     27 C         143.6937  142.7591  166.2667 C.ar    1  UNL1        0.0220
     28 C         142.7806  141.7801  166.9434 C.ar    1  UNL1        0.1185
     29 N         142.0868  141.8083  168.2730 N.ar    1  UNL1       -0.2050
     30 C         141.2980  140.5400  168.4113 C.ar    1  UNL1        0.3031
     31 O         141.5043  139.7278  167.1671 O.2     1  UNL1       -0.4321
     32 C         142.4207  140.4943  166.2599 C.ar    1  UNL1        0.1604
     33 C         142.9738  140.1874  164.8998 C.ar    1  UNL1        0.0114
     34 C         142.4917  138.8581  164.3993 C.3     1  UNL1        0.0465
     35 C         142.8036  138.1796  163.0984 C.3     1  UNL1        0.0769
     36 C         140.4515  140.1519  169.5872 C.3     1  UNL1        0.4696
     37 F         139.6051  139.7637  170.7632 F       1  UNL1       -0.1619
     38 F         139.4614  141.2194  169.2267 F       1  UNL1       -0.1619
     39 F         141.4418  139.0843  169.9477 F       1  UNL1       -0.1619
@<TRIPOS>BOND
     1    10    11    1
     2    11    12   ar
     3    12    13   ar
     4    13    14   ar
     5    14    15   ar
     6    15     4    1
     7     4     5   ar
     8     5     6   ar
     9     6     7   ar
    10     7     3    1
    11     3     2    1
    12     2     1    1
    13     1    21    1
    14    21    22    1
    15    22    23    1
    16    23    24    1
    17    24    25    1
    18    25    26   ar
    19    26    27   ar
    20    27    28   ar
    21    28    29   ar
    22    29    30   ar
    23    30    36    1
    24    36    37    1
    25    36    38    1
    26    36    39    1
    27    30    31   ar
    28    31    32   ar
    29    32    33   ar
    30    33    34    1
    31    34    35    1
    32     7     8   ar
    33     8     9    1
    34    15    16   ar
    35    16    17   ar
    36    17    18   ar
    37    18    19   ar
    38    19    20   ar
    39    20    11   ar
    40    19    14   ar
    41     8     4   ar
    42    35    22    1
    43    33    25   ar
    44    32    28   ar
@<TRIPOS>MOLECULE
*****
 39 44 0 0 0
SMALL
GASTEIGER

@<TRIPOS>ATOM
      1 C         139.4938  142.4142  158.1078 C.3     1  UNL1        0.0294
      2 C         139.5678  143.8663  157.7386 C.3     1  UNL1        0.0666
      3 S         140.7332  144.6962  158.1891 S.3     1  UNL1       -0.0756
      4 C         142.9173  143.5530  161.1872 C.ar    1  UNL1        0.1669
      5 N         143.6507  142.9261  160.0386 N.ar    1  UNL1       -0.1282
      6 N         142.9217  143.2780  158.7758 N.ar    1  UNL1       -0.1221
      7 C         141.7379  144.1225  159.1438 C.ar    1  UNL1        0.1932
      8 N         141.7352  144.2924  160.6341 N.ar    1  UNL1       -0.2884
      9 C         140.7272  145.0660  161.4315 C.3     1  UNL1        0.1340
     10 C         142.8918  138.2035  165.5037 C.3     1  UNL1        0.0521
     11 C         142.9936  139.5170  164.7864 C.ar    1  UNL1        0.0593
     12 C         142.6119  139.6126  163.3390 C.ar    1  UNL1        0.0147
     13 C         142.7137  140.9261  162.6218 C.ar    1  UNL1        0.0028
     14 C         143.1973  142.1439  163.3519 C.ar    1  UNL1        0.0206
     15 C         143.2991  143.4574  162.6346 C.ar    1  UNL1        0.0374
     16 C         143.7826  144.6751  163.3648 C.ar    1  UNL1        0.0031
     17 C         144.1644  144.5794  164.8123 C.ar    1  UNL1        0.0016
     18 C         144.0626  143.2661  165.5295 C.ar    1  UNL1        0.0191
     19 C         143.5790  142.0483  164.7993 C.ar    1  UNL1        0.0810
     20 N         143.4773  140.7348  165.5167 N.ar    1  UNL1       -0.2497
     21 C         138.3078  141.8920  158.8631 C.3     1  UNL1        0.0730
     22 N         138.4992  141.2302  160.1955 N.3     1  UNL1       -0.2720
     23 C         138.2722  139.7477  160.2244 C.3     1  UNL1        0.0768
     24 C         138.3823  138.8072  161.3879 C.3     1  UNL1        0.0434
     25 C         138.7464  139.1170  162.8095 C.ar    1  UNL1       -0.0217
     26 C         138.7401  137.8804  163.6587 C.ar    1  UNL1       -0.0028
     27 C         139.0779  137.9706  165.1174 C.ar    1  UNL1        0.0220
     28 C         139.4219  139.2973  165.7270 C.ar    1  UNL1        0.1185
     29 N         139.7943  139.6932  167.1251 N.ar    1  UNL1       -0.2050
     30 C         140.0307  141.1744  167.1400 C.ar    1  UNL1        0.3031
     31 O         139.8044  141.6939  165.7512 O.2     1  UNL1       -0.4321
     32 C         139.4281  140.5338  164.8779 C.ar    1  UNL1        0.1604
     33 C         139.0904  140.4436  163.4192 C.ar    1  UNL1        0.0114
     34 C         139.1552  141.7882  162.7575 C.3     1  UNL1        0.0465
     35 C         138.8921  142.1382  161.3228 C.3     1  UNL1        0.0769
     36 C         140.4243  141.9924  168.3341 C.3     1  UNL1        0.4696
     37 F         140.8180  142.8105  169.5281 F       1  UNL1       -0.1619
     38 F         139.4762  141.2031  169.1873 F       1  UNL1       -0.1619
     39 F         141.3725  142.7817  167.4808 F       1  UNL1       -0.1619
@<TRIPOS>BOND
     1    10    11    1
     2    11    12   ar
     3    12    13   ar
     4    13    14   ar
     5    14    15   ar
     6    15     4    1
     7     4     5   ar
     8     5     6   ar
     9     6     7   ar
    10     7     3    1
    11     3     2    1
    12     2     1    1
    13     1    21    1
    14    21    22    1
    15    22    23    1
    16    23    24    1
    17    24    25    1
    18    25    26   ar
    19    26    27   ar
    20    27    28   ar
    21    28    29   ar
    22    29    30   ar
    23    30    36    1
    24    36    37    1
    25    36    38    1
    26    36    39    1
    27    30    31   ar
    28    31    32   ar
    29    32    33   ar
    30    33    34    1
    31    34    35    1
    32     7     8   ar
    33     8     9    1
    34    15    16   ar
    35    16    17   ar
    36    17    18   ar
    37    18    19   ar
    38    19    20   ar
    39    20    11   ar
    40    19    14   ar
    41     8     4   ar
    42    35    22    1
    43    33    25   ar
    44    32    28   ar
@<TRIPOS>MOLECULE
*****
 39 44 0 0 0
SMALL
GASTEIGER

@<TRIPOS>ATOM
      1 C         140.5042  139.8660  157.6221 C.3     1  UNL1        0.0294
      2 C         139.0135  139.7128  157.5560 C.3     1  UNL1        0.0666
      3 S         138.1248  140.8768  157.8805 S.3     1  UNL1       -0.0756
      4 C         138.9815  143.0570  160.9754 C.ar    1  UNL1        0.1669
      5 N         139.5208  143.9073  159.8636 N.ar    1  UNL1       -0.1282
      6 N         139.2655  143.1941  158.5690 N.ar    1  UNL1       -0.1221
      7 C         138.5684  141.9030  158.8806 C.ar    1  UNL1        0.1932
      8 N         138.3930  141.8183  160.3679 N.ar    1  UNL1       -0.2884
      9 C         137.7430  140.6924  161.1163 C.3     1  UNL1        0.1340
     10 C         144.2109  143.0740  165.4368 C.3     1  UNL1        0.0521
     11 C         142.9140  143.1523  164.6871 C.ar    1  UNL1        0.0593
     12 C         142.8721  142.8219  163.2245 C.ar    1  UNL1        0.0147
     13 C         141.5752  142.9003  162.4749 C.ar    1  UNL1        0.0028
     14 C         140.3203  143.3090  163.1877 C.ar    1  UNL1        0.0206
     15 C         139.0234  143.3874  162.4379 C.ar    1  UNL1        0.0374
     16 C         137.7686  143.7961  163.1508 C.ar    1  UNL1        0.0031
     17 C         137.8105  144.1265  164.6134 C.ar    1  UNL1        0.0016
     18 C         139.1073  144.0482  165.3630 C.ar    1  UNL1        0.0191
     19 C         140.3622  143.6394  164.6502 C.ar    1  UNL1        0.0810
     20 N         141.6591  143.5611  165.4000 N.ar    1  UNL1       -0.2497
     21 C         141.3408  138.7944  158.2560 C.3     1  UNL1        0.0730
     22 N         141.7900  138.9376  159.6800 N.3     1  UNL1       -0.2720
     23 C         143.2739  138.9209  159.8991 C.3     1  UNL1        0.0768
     24 C         144.0302  139.0410  161.1890 C.3     1  UNL1        0.0434
     25 C         143.4895  139.2075  162.5781 C.ar    1  UNL1       -0.0217
     26 C         144.5939  139.2877  163.5901 C.ar    1  UNL1       -0.0028
     27 C         144.2676  139.4555  165.0445 C.ar    1  UNL1        0.0220
     28 C         142.8371  139.5430  165.4871 C.ar    1  UNL1        0.1185
     29 N         142.2137  139.7079  166.8414 N.ar    1  UNL1       -0.2050
     30 C         140.7241  139.7296  166.6665 C.ar    1  UNL1        0.3031
     31 O         140.4268  139.5781  165.2041 O.2     1  UNL1       -0.4321
     32 C         141.7327  139.4627  164.4751 C.ar    1  UNL1        0.1604
     33 C         142.0589  139.2950  163.0207 C.ar    1  UNL1        0.0114
     34 C         140.8158  139.2376  162.1833 C.3     1  UNL1        0.0465
     35 C         140.6962  139.0785  160.6966 C.3     1  UNL1        0.0769
     36 C         139.7098  139.8769  167.7617 C.3     1  UNL1        0.4696
     37 F         138.6955  140.0243  168.8570 F       1  UNL1       -0.1619
     38 F         138.7533  139.0155  166.9917 F       1  UNL1       -0.1619
     39 F         140.6664  140.7384  168.5317 F       1  UNL1       -0.1619
@<TRIPOS>BOND
     1    10    11    1
     2    11    12   ar
     3    12    13   ar
     4    13    14   ar
     5    14    15   ar
     6    15     4    1
     7     4     5   ar
     8     5     6   ar
     9     6     7   ar
    10     7     3    1
    11     3     2    1
    12     2     1    1
    13     1    21    1
    14    21    22    1
    15    22    23    1
    16    23    24    1
    17    24    25    1
    18    25    26   ar
    19    26    27   ar
    20    27    28   ar
    21    28    29   ar
    22    29    30   ar
    23    30    36    1
    24    36    37    1
    25    36    38    1
    26    36    39    1
    27    30    31   ar
    28    31    32   ar
    29    32    33   ar
    30    33    34    1
    31    34    35    1
    32     7     8   ar
    33     8     9    1
    34    15    16   ar
    35    16    17   ar
    36    17    18   ar
    37    18    19   ar
    38    19    20   ar
    39    20    11   ar
    40    19    14   ar
    41     8     4   ar
    42    35    22    1
    43    33    25   ar
    44    32    28   ar
@<TRIPOS>MOLECULE
*****
 39 44 0 0 0
SMALL
GASTEIGER

@<TRIPOS>ATOM
      1 C         142.4060  142.1499  157.8151 C.3     1  UNL1        0.0294
      2 C         141.4029  142.8834  156.9749 C.3     1  UNL1        0.0666
      3 S         140.4878  143.8898  157.6071 S.3     1  UNL1       -0.0756
      4 C         139.2860  143.3321  161.2554 C.ar    1  UNL1        0.1669
      5 N         138.1243  142.7842  160.4806 N.ar    1  UNL1       -0.1282
      6 N         138.4332  142.9264  159.0196 N.ar    1  UNL1       -0.1221
      7 C         139.7857  143.5622  158.8915 C.ar    1  UNL1        0.1932
      8 N         140.3127  143.8130  160.2733 N.ar    1  UNL1       -0.2884
      9 C         141.6346  144.4353  160.6133 C.3     1  UNL1        0.1340
     10 C         138.2357  138.5065  166.0368 C.3     1  UNL1        0.0521
     11 C         138.5269  139.7272  165.2150 C.ar    1  UNL1        0.0593
     12 C         138.4122  139.6702  163.7205 C.ar    1  UNL1        0.0147
     13 C         138.7035  140.8908  162.8988 C.ar    1  UNL1        0.0028
     14 C         139.1095  142.1685  163.5716 C.ar    1  UNL1        0.0206
     15 C         139.4007  143.3892  162.7499 C.ar    1  UNL1        0.0374
     16 C         139.8067  144.6668  163.4227 C.ar    1  UNL1        0.0031
     17 C         139.9215  144.7238  164.9173 C.ar    1  UNL1        0.0016
     18 C         139.6302  143.5033  165.7389 C.ar    1  UNL1        0.0191
     19 C         139.2242  142.2256  165.0661 C.ar    1  UNL1        0.0810
     20 N         138.9329  141.0049  165.8879 N.ar    1  UNL1       -0.2497
     21 C         142.2406  140.6809  158.0691 C.3     1  UNL1        0.0730
     22 N         142.1281  140.1709  159.4753 N.3     1  UNL1       -0.2720
     23 C         141.6652  138.7511  159.6175 C.3     1  UNL1        0.0768
     24 C         141.4532  137.9579  160.8729 C.3     1  UNL1        0.0434
     25 C         141.6518  138.3884  162.2959 C.ar    1  UNL1       -0.0217
     26 C         141.3246  137.2816  163.2541 C.ar    1  UNL1       -0.0028
     27 C         141.4569  137.5049  164.7314 C.ar    1  UNL1        0.0220
     28 C         141.9165  138.8350  165.2507 C.ar    1  UNL1        0.1185
     29 N         142.1404  139.3460  166.6431 N.ar    1  UNL1       -0.2050
     30 C         142.6060  140.7686  166.5456 C.ar    1  UNL1        0.3031
     31 O         142.6699  141.1368  165.0929 O.2     1  UNL1       -0.4321
     32 C         142.2437  139.9418  164.2926 C.ar    1  UNL1        0.1604
     33 C         142.1114  139.7185  162.8152 C.ar    1  UNL1        0.0114
     34 C         142.4859  140.9466  162.0396 C.3     1  UNL1        0.0465
     35 C         142.4933  141.1478  160.5532 C.3     1  UNL1        0.0769
     36 C         142.9477  141.6654  167.6983 C.3     1  UNL1        0.4696
     37 F         143.2895  142.5624  168.8510 F       1  UNL1       -0.1619
     38 F         142.9375  140.4831  168.6212 F       1  UNL1       -0.1619
     39 F         142.9580  142.8478  166.7752 F       1  UNL1       -0.1619
@<TRIPOS>BOND
     1    10    11    1
     2    11    12   ar
     3    12    13   ar
     4    13    14   ar
     5    14    15   ar
     6    15     4    1
     7     4     5   ar
     8     5     6   ar
     9     6     7   ar
    10     7     3    1
    11     3     2    1
    12     2     1    1
    13     1    21    1
    14    21    22    1
    15    22    23    1
    16    23    24    1
    17    24    25    1
    18    25    26   ar
    19    26    27   ar
    20    27    28   ar
    21    28    29   ar
    22    29    30   ar
    23    30    36    1
    24    36    37    1
    25    36    38    1
    26    36    39    1
    27    30    31   ar
    28    31    32   ar
    29    32    33   ar
    30    33    34    1
    31    34    35    1
    32     7     8   ar
    33     8     9    1
    34    15    16   ar
    35    16    17   ar
    36    17    18   ar
    37    18    19   ar
    38    19    20   ar
    39    20    11   ar
    40    19    14   ar
    41     8     4   ar
    42    35    22    1
    43    33    25   ar
    44    32    28   ar
