@<TRIPOS>MOLECULE
*****
 35 39 0 0 0
SMALL
GASTEIGER

@<TRIPOS>ATOM
      1 C         142.5421  139.5019  158.1790 C.2     1  UNL1        0.3047
      2 O         143.3980  140.7335  158.1548 O.2     1  UNL1       -0.2647
      3 N         141.2743  139.4852  158.9805 N.am    1  UNL1       -0.2647
      4 C         140.1967  138.4747  159.2398 C.3     1  UNL1        0.1391
      5 C         139.4814  139.4617  160.1141 C.3     1  UNL1        0.2052
      6 C         140.5592  140.4723  159.8548 C.3     1  UNL1        0.1391
      7 C         143.1250  135.9960  156.6186 C.ar    1  UNL1        0.2501
      8 N         144.0508  136.8386  155.7923 N.ar    1  UNL1       -0.1068
      9 N         143.9451  138.2545  156.2762 N.ar    1  UNL1       -0.1021
     10 C         142.9540  138.2870  157.4016 C.ar    1  UNL1        0.3043
     11 O         142.4472  136.8912  157.6133 O.2     1  UNL1       -0.4122
     12 C         142.4921  131.5615  156.1892 C.ar    1  UNL1        0.1387
     13 C         143.4818  132.0846  157.1876 C.ar    1  UNL1        0.0371
     14 C         143.6927  133.5628  157.3308 C.ar    1  UNL1        0.0078
     15 C         142.9140  134.5178  156.4755 C.ar    1  UNL1        0.0553
     16 C         141.9244  133.9947  155.4771 C.ar    1  UNL1        0.0078
     17 C         141.7134  132.5165  155.3340 C.ar    1  UNL1        0.0371
     18 C         141.1821  129.5642  155.1672 C.3     1  UNL1        0.2525
     19 O         142.2812  130.0833  156.0461 O.3     1  UNL1       -0.4714
     20 O         138.2137  139.4450  160.9156 O.3     1  UNL1       -0.4756
     21 C         138.2742  139.4118  162.4140 C.ar    1  UNL1        0.1408
     22 C         137.9294  140.6380  163.2060 C.ar    1  UNL1        0.0368
     23 C         137.9898  140.6047  164.7044 C.ar    1  UNL1        0.0024
     24 C         138.3951  139.3450  165.4109 C.ar    1  UNL1        0.0216
     25 C         138.7398  138.1188  164.6189 C.ar    1  UNL1        0.1405
     26 F         139.1451  136.8591  165.3253 F       1  UNL1       -0.2044
     27 C         138.6794  138.1521  163.1204 C.ar    1  UNL1        0.0662
     28 C         138.4555  139.3117  166.9093 C.3     1  UNL1        0.1015
     29 N         139.6616  139.8460  167.6233 N.3     1  UNL1       -0.2665
     30 C         139.5625  140.2492  169.0647 C.3     1  UNL1        0.0899
     31 C         140.7687  140.7836  169.7787 C.3     1  UNL1        0.0897
     32 N         142.0739  140.9147  169.0512 N.3     1  UNL1       -0.2691
     33 C         143.2800  141.4491  169.7651 C.3     1  UNL1        0.0897
     34 C         142.1730  140.5116  167.6098 C.3     1  UNL1        0.0897
     35 C         140.9669  139.9772  166.8958 C.3     1  UNL1        0.0899
@<TRIPOS>BOND
     1    18    19    1
     2    19    12    1
     3    12    13   ar
     4    13    14   ar
     5    14    15   ar
     6    15     7    1
     7     7     8   ar
     8     8     9   ar
     9     9    10   ar
    10    10     1    1
    11     1     2    2
    12     1     3   am
    13     3     4    1
    14     4     5    1
    15     5    20    1
    16    20    21    1
    17    21    22   ar
    18    22    23   ar
    19    23    24   ar
    20    24    28    1
    21    28    29    1
    22    29    30    1
    23    30    31    1
    24    31    32    1
    25    32    33    1
    26    32    34    1
    27    34    35    1
    28    24    25   ar
    29    25    26    1
    30    25    27   ar
    31     5     6    1
    32    10    11   ar
    33    15    16   ar
    34    16    17   ar
    35    17    12   ar
    36    11     7   ar
    37     6     3    1
    38    27    21   ar
    39    35    29    1
@<TRIPOS>MOLECULE
*****
 35 39 0 0 0
SMALL
GASTEIGER

@<TRIPOS>ATOM
      1 C         142.6264  139.7554  158.3011 C.2     1  UNL1        0.3047
      2 O         143.4800  140.9867  158.3739 O.2     1  UNL1       -0.2647
      3 N         141.3520  139.6786  159.0885 N.am    1  UNL1       -0.2647
      4 C         140.2743  138.6503  159.2644 C.3     1  UNL1        0.1391
      5 C         139.5498  139.5701  160.2021 C.3     1  UNL1        0.2052
      6 C         140.6276  140.5984  160.0262 C.3     1  UNL1        0.1391
      7 C         143.2357  136.3715  156.5001 C.ar    1  UNL1        0.2501
      8 N         144.1539  137.2770  155.7341 N.ar    1  UNL1       -0.1068
      9 N         144.0375  138.6549  156.3154 N.ar    1  UNL1       -0.1021
     10 C         143.0472  138.6009  157.4409 C.ar    1  UNL1        0.3043
     11 O         142.5517  137.1897  157.5550 O.2     1  UNL1       -0.4122
     12 C         142.6379  131.9727  155.7632 C.ar    1  UNL1        0.1387
     13 C         142.3358  132.9629  154.6778 C.ar    1  UNL1        0.0371
     14 C         142.5351  134.4291  154.9234 C.ar    1  UNL1        0.0078
     15 C         143.0364  134.9052  156.2545 C.ar    1  UNL1        0.0553
     16 C         143.3385  133.9151  157.3400 C.ar    1  UNL1        0.0078
     17 C         143.1392  132.4488  157.0943 C.ar    1  UNL1        0.0371
     18 C         141.1602  130.0154  154.9056 C.3     1  UNL1        0.2525
     19 O         142.4386  130.5064  155.5176 O.3     1  UNL1       -0.4714
     20 O         138.2754  139.4933  160.9895 O.3     1  UNL1       -0.4756
     21 C         138.3216  139.4415  162.4880 C.ar    1  UNL1        0.1408
     22 C         137.9893  140.6637  163.2913 C.ar    1  UNL1        0.0368
     23 C         138.0355  140.6119  164.7897 C.ar    1  UNL1        0.0024
     24 C         138.4141  139.3377  165.4848 C.ar    1  UNL1        0.0216
     25 C         138.7464  138.1154  164.6814 C.ar    1  UNL1        0.1405
     26 F         139.1250  136.8412  165.3765 F       1  UNL1       -0.2044
     27 C         138.7002  138.1672  163.1829 C.ar    1  UNL1        0.0662
     28 C         138.4603  139.2858  166.9831 C.3     1  UNL1        0.1015
     29 N         139.6566  139.8174  167.7154 N.3     1  UNL1       -0.2665
     30 C         140.9990  139.8346  167.0463 C.3     1  UNL1        0.0899
     31 C         142.1953  140.3663  167.7786 C.3     1  UNL1        0.0897
     32 N         142.0492  140.8807  169.1800 N.3     1  UNL1       -0.2691
     33 C         143.2455  141.4123  169.9123 C.3     1  UNL1        0.0897
     34 C         140.7069  140.8635  169.8492 C.3     1  UNL1        0.0897
     35 C         139.5106  140.3319  169.1169 C.3     1  UNL1        0.0899
@<TRIPOS>BOND
     1    18    19    1
     2    19    12    1
     3    12    13   ar
     4    13    14   ar
     5    14    15   ar
     6    15     7    1
     7     7     8   ar
     8     8     9   ar
     9     9    10   ar
    10    10     1    1
    11     1     2    2
    12     1     3   am
    13     3     4    1
    14     4     5    1
    15     5    20    1
    16    20    21    1
    17    21    22   ar
    18    22    23   ar
    19    23    24   ar
    20    24    28    1
    21    28    29    1
    22    29    30    1
    23    30    31    1
    24    31    32    1
    25    32    33    1
    26    32    34    1
    27    34    35    1
    28    24    25   ar
    29    25    26    1
    30    25    27   ar
    31     5     6    1
    32    10    11   ar
    33    15    16   ar
    34    16    17   ar
    35    17    12   ar
    36    11     7   ar
    37     6     3    1
    38    27    21   ar
    39    35    29    1
@<TRIPOS>MOLECULE
*****
 35 39 0 0 0
SMALL
GASTEIGER

@<TRIPOS>ATOM
      1 C         141.3803  138.0003  157.8752 C.2     1  UNL1        0.3047
      2 O         140.0930  138.7417  157.6670 O.2     1  UNL1       -0.2647
      3 N         141.7874  136.9205  156.9169 N.am    1  UNL1       -0.2647
      4 C         142.9601  135.9926  156.8005 C.3     1  UNL1        0.1391
      5 C         142.3631  135.3935  155.5617 C.3     1  UNL1        0.2052
      6 C         141.1904  136.3215  155.6781 C.3     1  UNL1        0.1391
      7 C         143.0832  138.6190  161.3078 C.ar    1  UNL1        0.2501
      8 N         144.1466  139.1005  160.3658 N.ar    1  UNL1       -0.1068
      9 N         143.6381  138.9273  158.9652 N.ar    1  UNL1       -0.1021
     10 C         142.2605  138.3388  159.0417 C.ar    1  UNL1        0.3043
     11 O         141.9176  138.1483  160.4895 O.2     1  UNL1       -0.4122
     12 C         143.3443  138.5916  165.8002 C.ar    1  UNL1        0.1387
     13 C         142.1542  137.9888  165.1144 C.ar    1  UNL1        0.0371
     14 C         142.0672  137.9979  163.6169 C.ar    1  UNL1        0.0078
     15 C         143.1702  138.6099  162.8053 C.ar    1  UNL1        0.0553
     16 C         144.3603  139.2127  163.4911 C.ar    1  UNL1        0.0078
     17 C         144.4473  139.2035  164.9885 C.ar    1  UNL1        0.0371
     18 C         142.6431  139.5742  168.1007 C.3     1  UNL1        0.2525
     19 O         143.4313  138.5824  167.2976 O.3     1  UNL1       -0.4714
     20 O         142.7702  134.3137  154.6034 O.3     1  UNL1       -0.4756
     21 C         142.8534  132.8902  155.0689 C.ar    1  UNL1        0.1408
     22 C         144.1221  132.3739  155.6803 C.ar    1  UNL1        0.0368
     23 C         144.2053  130.9504  156.1458 C.ar    1  UNL1        0.0024
     24 C         143.0198  130.0431  155.9998 C.ar    1  UNL1        0.0216
     25 C         141.7511  130.5593  155.3884 C.ar    1  UNL1        0.1405
     26 F         140.5656  129.6520  155.2424 F       1  UNL1       -0.2044
     27 C         141.6679  131.9829  154.9229 C.ar    1  UNL1        0.0662
     28 C         143.1030  128.6196  156.4652 C.3     1  UNL1        0.1015
     29 N         143.8626  128.2820  157.7138 N.3     1  UNL1       -0.2665
     30 C         143.2930  128.6331  159.0563 C.3     1  UNL1        0.0899
     31 C         144.0527  128.2955  160.3050 C.3     1  UNL1        0.0897
     32 N         145.3819  127.6068  160.2110 N.3     1  UNL1       -0.2691
     33 C         146.1416  127.2691  161.4596 C.3     1  UNL1        0.0897
     34 C         145.9515  127.2556  158.8685 C.3     1  UNL1        0.0897
     35 C         145.1919  127.5932  157.6199 C.3     1  UNL1        0.0899
@<TRIPOS>BOND
     1    18    19    1
     2    19    12    1
     3    12    13   ar
     4    13    14   ar
     5    14    15   ar
     6    15     7    1
     7     7     8   ar
     8     8     9   ar
     9     9    10   ar
    10    10     1    1
    11     1     2    2
    12     1     3   am
    13     3     4    1
    14     4     5    1
    15     5    20    1
    16    20    21    1
    17    21    22   ar
    18    22    23   ar
    19    23    24   ar
    20    24    28    1
    21    28    29    1
    22    29    30    1
    23    30    31    1
    24    31    32    1
    25    32    33    1
    26    32    34    1
    27    34    35    1
    28    24    25   ar
    29    25    26    1
    30    25    27   ar
    31     5     6    1
    32    10    11   ar
    33    15    16   ar
    34    16    17   ar
    35    17    12   ar
    36    11     7   ar
    37     6     3    1
    38    27    21   ar
    39    35    29    1
@<TRIPOS>MOLECULE
*****
 35 39 0 0 0
SMALL
GASTEIGER

@<TRIPOS>ATOM
      1 C         139.3660  144.0263  161.3167 C.2     1  UNL1        0.3047
      2 O         139.5987  145.3308  160.6139 O.2     1  UNL1       -0.2647
      3 N         139.0882  142.7851  160.5215 N.am    1  UNL1       -0.2647
      4 C         138.8151  141.3490  160.8577 C.3     1  UNL1        0.1391
      5 C         138.6952  141.0298  159.3969 C.3     1  UNL1        0.2052
      6 C         138.9682  142.4660  159.0607 C.3     1  UNL1        0.1391
      7 C         140.1190  143.4728  165.0839 C.ar    1  UNL1        0.2501
      8 N         138.8428  144.2578  165.1557 N.ar    1  UNL1       -0.1068
      9 N         138.4054  144.5607  163.7532 N.ar    1  UNL1       -0.1021
     10 C         139.4113  143.9629  162.8146 C.ar    1  UNL1        0.3043
     11 O         140.4703  143.2906  163.6371 O.2     1  UNL1       -0.4122
     12 C         142.4792  141.9347  168.5930 C.ar    1  UNL1        0.1387
     13 C         141.0783  142.4326  168.7917 C.ar    1  UNL1        0.0371
     14 C         140.2915  142.9453  167.6220 C.ar    1  UNL1        0.0078
     15 C         140.9057  142.9601  166.2536 C.ar    1  UNL1        0.0553
     16 C         142.3066  142.4622  166.0550 C.ar    1  UNL1        0.0078
     17 C         143.0933  141.9495  167.2247 C.ar    1  UNL1        0.0371
     18 C         142.8507  140.1540  170.4479 C.3     1  UNL1        0.2525
     19 O         143.2659  141.4221  169.7628 O.3     1  UNL1       -0.4714
     20 O         138.4173  139.7887  158.6018 O.3     1  UNL1       -0.4756
     21 C         139.5549  138.9592  158.0842 C.ar    1  UNL1        0.1408
     22 C         139.4578  138.3116  156.7348 C.ar    1  UNL1        0.0368
     23 C         140.5953  137.4821  156.2173 C.ar    1  UNL1        0.0024
     24 C         141.8301  137.3002  157.0493 C.ar    1  UNL1        0.0216
     25 C         141.9273  137.9478  158.3988 C.ar    1  UNL1        0.1405
     26 F         143.1621  137.7658  159.2308 F       1  UNL1       -0.2044
     27 C         140.7897  138.7773  158.9163 C.ar    1  UNL1        0.0662
     28 C         142.9677  136.4707  156.5318 C.3     1  UNL1        0.1015
     29 N         142.8152  134.9837  156.4062 N.3     1  UNL1       -0.2665
     30 C         141.8812  134.4094  155.3826 C.3     1  UNL1        0.0899
     31 C         141.7288  132.9223  155.2570 C.3     1  UNL1        0.0897
     32 N         142.5103  132.0098  156.1551 N.3     1  UNL1       -0.2691
     33 C         142.3578  130.5229  156.0295 C.3     1  UNL1        0.0897
     34 C         143.4442  132.5842  157.1787 C.3     1  UNL1        0.0897
     35 C         143.5967  134.0711  157.3043 C.3     1  UNL1        0.0899
@<TRIPOS>BOND
     1    18    19    1
     2    19    12    1
     3    12    13   ar
     4    13    14   ar
     5    14    15   ar
     6    15     7    1
     7     7     8   ar
     8     8     9   ar
     9     9    10   ar
    10    10     1    1
    11     1     2    2
    12     1     3   am
    13     3     4    1
    14     4     5    1
    15     5    20    1
    16    20    21    1
    17    21    22   ar
    18    22    23   ar
    19    23    24   ar
    20    24    28    1
    21    28    29    1
    22    29    30    1
    23    30    31    1
    24    31    32    1
    25    32    33    1
    26    32    34    1
    27    34    35    1
    28    24    25   ar
    29    25    26    1
    30    25    27   ar
    31     5     6    1
    32    10    11   ar
    33    15    16   ar
    34    16    17   ar
    35    17    12   ar
    36    11     7   ar
    37     6     3    1
    38    27    21   ar
    39    35    29    1
@<TRIPOS>MOLECULE
*****
 35 39 0 0 0
SMALL
GASTEIGER

@<TRIPOS>ATOM
      1 C         142.5010  138.5594  157.0353 C.2     1  UNL1        0.3047
      2 O         143.5433  139.6123  156.8010 O.2     1  UNL1       -0.2647
      3 N         141.2909  138.8731  157.8644 N.am    1  UNL1       -0.2647
      4 C         140.0784  138.1071  158.3033 C.3     1  UNL1        0.1391
      5 C         139.5797  139.3169  159.0368 C.3     1  UNL1        0.2052
      6 C         140.7924  140.0829  158.5978 C.3     1  UNL1        0.1391
      7 C         143.0301  134.8036  156.2108 C.ar    1  UNL1        0.2501
      8 N         142.8239  135.3752  154.8394 N.ar    1  UNL1       -0.1068
      9 N         142.6006  136.8517  154.9813 N.ar    1  UNL1       -0.1021
     10 C         142.6688  137.1926  156.4404 C.ar    1  UNL1        0.3043
     11 O         142.9342  135.9269  157.2003 O.2     1  UNL1       -0.4122
     12 C         143.8009  130.4786  157.1855 C.ar    1  UNL1        0.1387
     13 C         144.6907  131.5451  157.7517 C.ar    1  UNL1        0.0371
     14 C         144.4338  132.9868  157.4268 C.ar    1  UNL1        0.0078
     15 C         143.2870  133.3619  156.5357 C.ar    1  UNL1        0.0553
     16 C         142.3972  132.2954  155.9695 C.ar    1  UNL1        0.0078
     17 C         142.6541  130.8537  156.2944 C.ar    1  UNL1        0.0371
     18 C         144.9064  128.2021  156.5977 C.3     1  UNL1        0.2525
     19 O         144.0578  129.0369  157.5104 O.3     1  UNL1       -0.4714
     20 O         138.3697  139.6306  159.8659 O.3     1  UNL1       -0.4756
     21 C         138.4037  139.4228  161.3511 C.ar    1  UNL1        0.1408
     22 C         138.8232  138.0971  161.9135 C.ar    1  UNL1        0.0368
     23 C         138.8571  137.8893  163.3986 C.ar    1  UNL1        0.0024
     24 C         138.4716  139.0072  164.3214 C.ar    1  UNL1        0.0216
     25 C         138.0521  140.3330  163.7590 C.ar    1  UNL1        0.1405
     26 F         137.6665  141.4509  164.6817 F       1  UNL1       -0.2044
     27 C         138.0181  140.5408  162.2738 C.ar    1  UNL1        0.0662
     28 C         138.5055  138.7994  165.8065 C.3     1  UNL1        0.1015
     29 N         139.6197  139.3873  166.6208 N.3     1  UNL1       -0.2665
     30 C         141.0152  139.4169  166.0715 C.3     1  UNL1        0.0899
     31 C         142.1294  140.0048  166.8859 C.3     1  UNL1        0.0897
     32 N         141.8480  140.5631  168.2494 N.3     1  UNL1       -0.2691
     33 C         142.9621  141.1509  169.0637 C.3     1  UNL1        0.0897
     34 C         140.4525  140.5334  168.7986 C.3     1  UNL1        0.0897
     35 C         139.3383  139.9456  167.9844 C.3     1  UNL1        0.0899
@<TRIPOS>BOND
     1    18    19    1
     2    19    12    1
     3    12    13   ar
     4    13    14   ar
     5    14    15   ar
     6    15     7    1
     7     7     8   ar
     8     8     9   ar
     9     9    10   ar
    10    10     1    1
    11     1     2    2
    12     1     3   am
    13     3     4    1
    14     4     5    1
    15     5    20    1
    16    20    21    1
    17    21    22   ar
    18    22    23   ar
    19    23    24   ar
    20    24    28    1
    21    28    29    1
    22    29    30    1
    23    30    31    1
    24    31    32    1
    25    32    33    1
    26    32    34    1
    27    34    35    1
    28    24    25   ar
    29    25    26    1
    30    25    27   ar
    31     5     6    1
    32    10    11   ar
    33    15    16   ar
    34    16    17   ar
    35    17    12   ar
    36    11     7   ar
    37     6     3    1
    38    27    21   ar
    39    35    29    1
@<TRIPOS>MOLECULE
*****
 35 39 0 0 0
SMALL
GASTEIGER

@<TRIPOS>ATOM
      1 C         140.0474  138.6498  160.9719 C.2     1  UNL1        0.3047
      2 O         138.7098  139.2493  160.6536 O.2     1  UNL1       -0.2647
      3 N         141.0070  138.3264  159.8653 N.am    1  UNL1       -0.2647
      4 C         142.3858  137.7403  159.7945 C.3     1  UNL1        0.1391
      5 C         142.3639  137.8690  158.3001 C.3     1  UNL1        0.2052
      6 C         140.9849  138.4551  158.3709 C.3     1  UNL1        0.1391
      7 C         140.7969  138.6435  164.7803 C.ar    1  UNL1        0.2501
      8 N         141.2179  137.2550  164.3997 N.ar    1  UNL1       -0.1068
      9 N         140.9885  137.0884  162.9268 N.ar    1  UNL1       -0.1021
     10 C         140.4256  138.3739  162.3970 C.ar    1  UNL1        0.3043
     11 O         140.3072  139.3349  163.5426 O.2     1  UNL1       -0.4122
     12 C         140.9720  140.4221  168.9102 C.ar    1  UNL1        0.1387
     13 C         142.2324  139.9700  168.2342 C.ar    1  UNL1        0.0371
     14 C         142.1740  139.3772  166.8576 C.ar    1  UNL1        0.0078
     15 C         140.8553  139.2364  166.1570 C.ar    1  UNL1        0.0553
     16 C         139.5949  139.6884  166.8329 C.ar    1  UNL1        0.0078
     17 C         139.6533  140.2813  168.2096 C.ar    1  UNL1        0.0371
     18 C         142.2660  141.7332  170.7423 C.3     1  UNL1        0.2525
     19 O         141.0304  141.0150  170.2868 O.3     1  UNL1       -0.4714
     20 O         143.3233  137.5455  157.1935 O.3     1  UNL1       -0.4756
     21 C         143.1865  136.2590  156.4343 C.ar    1  UNL1        0.1408
     22 C         143.4204  134.9500  157.1283 C.ar    1  UNL1        0.0368
     23 C         143.2835  133.6636  156.3691 C.ar    1  UNL1        0.0024
     24 C         142.9128  133.6862  154.9158 C.ar    1  UNL1        0.0216
     25 C         142.6789  134.9952  154.2218 C.ar    1  UNL1        0.1405
     26 F         142.3082  135.0178  152.7685 F       1  UNL1       -0.2044
     27 C         142.8157  136.2817  154.9810 C.ar    1  UNL1        0.0662
     28 C         142.7760  132.3998  154.1566 C.3     1  UNL1        0.1015
     29 N         143.0919  131.0959  154.8274 N.3     1  UNL1       -0.2665
     30 C         141.9875  130.2663  155.4122 C.3     1  UNL1        0.0899
     31 C         142.3035  128.9623  156.0830 C.3     1  UNL1        0.0897
     32 N         143.7239  128.4879  156.1689 N.3     1  UNL1       -0.2691
     33 C         144.0400  127.1841  156.8396 C.3     1  UNL1        0.0897
     34 C         144.8284  129.3175  155.5840 C.3     1  UNL1        0.0897
     35 C         144.5124  130.6215  154.9133 C.3     1  UNL1        0.0899
@<TRIPOS>BOND
     1    18    19    1
     2    19    12    1
     3    12    13   ar
     4    13    14   ar
     5    14    15   ar
     6    15     7    1
     7     7     8   ar
     8     8     9   ar
     9     9    10   ar
    10    10     1    1
    11     1     2    2
    12     1     3   am
    13     3     4    1
    14     4     5    1
    15     5    20    1
    16    20    21    1
    17    21    22   ar
    18    22    23   ar
    19    23    24   ar
    20    24    28    1
    21    28    29    1
    22    29    30    1
    23    30    31    1
    24    31    32    1
    25    32    33    1
    26    32    34    1
    27    34    35    1
    28    24    25   ar
    29    25    26    1
    30    25    27   ar
    31     5     6    1
    32    10    11   ar
    33    15    16   ar
    34    16    17   ar
    35    17    12   ar
    36    11     7   ar
    37     6     3    1
    38    27    21   ar
    39    35    29    1
@<TRIPOS>MOLECULE
*****
 35 39 0 0 0
SMALL
GASTEIGER

@<TRIPOS>ATOM
      1 C         138.6581  141.4769  156.9444 C.2     1  UNL1        0.3047
      2 O         139.3832  142.7287  156.5481 O.2     1  UNL1       -0.2647
      3 N         139.2343  140.5781  157.9981 N.am    1  UNL1       -0.2647
      4 C         138.8145  139.2874  158.6366 C.3     1  UNL1        0.1391
      5 C         140.0492  139.3071  159.4883 C.3     1  UNL1        0.2052
      6 C         140.4690  140.5979  158.8498 C.3     1  UNL1        0.1391
      7 C         135.0388  140.4889  155.9496 C.ar    1  UNL1        0.2501
      8 N         135.6703  140.6718  154.6014 N.ar    1  UNL1       -0.1068
      9 N         137.1029  141.0642  154.8099 N.ar    1  UNL1       -0.1021
     10 C         137.3569  141.1237  156.2871 C.ar    1  UNL1        0.3043
     11 O         136.0812  140.7682  156.9914 O.2     1  UNL1       -0.4122
     12 C         130.7671  139.3092  156.7317 C.ar    1  UNL1        0.1387
     13 C         131.8829  138.3812  157.1108 C.ar    1  UNL1        0.0371
     14 C         133.3068  138.7744  156.8501 C.ar    1  UNL1        0.0078
     15 C         133.6149  140.0957  156.2103 C.ar    1  UNL1        0.0553
     16 C         132.4991  141.0237  155.8312 C.ar    1  UNL1        0.0078
     17 C         131.0752  140.6305  156.0919 C.ar    1  UNL1        0.0371
     18 C         128.9565  138.3359  158.3205 C.3     1  UNL1        0.2525
     19 O         129.3433  138.9160  156.9924 O.3     1  UNL1       -0.4714
     20 O         140.6253  138.4084  160.5419 O.3     1  UNL1       -0.4756
     21 C         140.1600  138.5247  161.9633 C.ar    1  UNL1        0.1408
     22 C         140.7982  137.6882  163.0323 C.ar    1  UNL1        0.0368
     23 C         140.3329  137.8045  164.4535 C.ar    1  UNL1        0.0024
     24 C         139.2292  138.7574  164.8057 C.ar    1  UNL1        0.0216
     25 C         138.5910  139.5938  163.7367 C.ar    1  UNL1        0.1405
     26 F         137.4873  140.5467  164.0890 F       1  UNL1       -0.2044
     27 C         139.0563  139.4776  162.3154 C.ar    1  UNL1        0.0662
     28 C         138.7639  138.8737  166.2269 C.3     1  UNL1        0.1015
     29 N         139.2934  139.9708  167.1021 N.3     1  UNL1       -0.2665
     30 C         139.9765  141.1566  166.4877 C.3     1  UNL1        0.0899
     31 C         140.5060  142.2538  167.3630 C.3     1  UNL1        0.0897
     32 N         140.3524  142.1651  168.8524 N.3     1  UNL1       -0.2691
     33 C         140.8819  143.2622  169.7276 C.3     1  UNL1        0.0897
     34 C         139.6694  140.9794  169.4668 C.3     1  UNL1        0.0897
     35 C         139.1398  139.8822  168.5916 C.3     1  UNL1        0.0899
@<TRIPOS>BOND
     1    18    19    1
     2    19    12    1
     3    12    13   ar
     4    13    14   ar
     5    14    15   ar
     6    15     7    1
     7     7     8   ar
     8     8     9   ar
     9     9    10   ar
    10    10     1    1
    11     1     2    2
    12     1     3   am
    13     3     4    1
    14     4     5    1
    15     5    20    1
    16    20    21    1
    17    21    22   ar
    18    22    23   ar
    19    23    24   ar
    20    24    28    1
    21    28    29    1
    22    29    30    1
    23    30    31    1
    24    31    32    1
    25    32    33    1
    26    32    34    1
    27    34    35    1
    28    24    25   ar
    29    25    26    1
    30    25    27   ar
    31     5     6    1
    32    10    11   ar
    33    15    16   ar
    34    16    17   ar
    35    17    12   ar
    36    11     7   ar
    37     6     3    1
    38    27    21   ar
    39    35    29    1
@<TRIPOS>MOLECULE
*****
 35 39 0 0 0
SMALL
GASTEIGER

@<TRIPOS>ATOM
      1 C         138.4380  140.0629  161.7016 C.2     1  UNL1        0.3047
      2 O         137.0884  140.7062  161.5803 O.2     1  UNL1       -0.2647
      3 N         139.3549  140.0142  160.5155 N.am    1  UNL1       -0.2647
      4 C         140.7309  139.4744  160.2601 C.3     1  UNL1        0.1391
      5 C         140.6517  139.9453  158.8381 C.3     1  UNL1        0.2052
      6 C         139.2757  140.4851  159.0935 C.3     1  UNL1        0.1391
      7 C         139.6611  139.2414  165.2925 C.ar    1  UNL1        0.2501
      8 N         139.4117  137.8656  164.7494 N.ar    1  UNL1       -0.1068
      9 N         138.9231  138.0059  163.3381 N.ar    1  UNL1       -0.1021
     10 C         138.8706  139.4684  163.0090 C.ar    1  UNL1        0.3043
     11 O         139.3267  140.2320  164.2169 O.2     1  UNL1       -0.4122
     12 C         141.1510  140.2246  169.4233 C.ar    1  UNL1        0.1387
     13 C         139.6770  140.1530  169.1550 C.ar    1  UNL1        0.0371
     14 C         139.1803  139.8253  167.7780 C.ar    1  UNL1        0.0078
     15 C         140.1578  139.5692  166.6694 C.ar    1  UNL1        0.0553
     16 C         141.6318  139.6407  166.9378 C.ar    1  UNL1        0.0078
     17 C         142.1284  139.9684  168.3147 C.ar    1  UNL1        0.0371
     18 C         142.0224  141.9628  171.1464 C.3     1  UNL1        0.2525
     19 O         141.6476  140.5523  170.8003 O.3     1  UNL1       -0.4714
     20 O         141.5686  139.8965  157.6520 O.3     1  UNL1       -0.4756
     21 C         141.8348  138.5909  156.9630 C.ar    1  UNL1        0.1408
     22 C         140.7135  137.6213  156.7342 C.ar    1  UNL1        0.0368
     23 C         140.9797  136.3158  156.0452 C.ar    1  UNL1        0.0024
     24 C         142.3673  135.9799  155.5849 C.ar    1  UNL1        0.0216
     25 C         143.4886  136.9496  155.8137 C.ar    1  UNL1        0.1405
     26 F         144.8761  136.6137  155.3534 F       1  UNL1       -0.2044
     27 C         143.2224  138.2552  156.5027 C.ar    1  UNL1        0.0662
     28 C         142.6335  134.6744  154.8959 C.3     1  UNL1        0.1015
     29 N         143.0395  133.4728  155.6967 N.3     1  UNL1       -0.2665
     30 C         142.4160  132.1380  155.4148 C.3     1  UNL1        0.0899
     31 C         142.8220  130.9364  156.2157 C.3     1  UNL1        0.0897
     32 N         143.8514  131.0696  157.2985 N.3     1  UNL1       -0.2691
     33 C         144.2574  129.8681  158.0994 C.3     1  UNL1        0.0897
     34 C         144.4749  132.4045  157.5805 C.3     1  UNL1        0.0897
     35 C         144.0690  133.6061  156.7796 C.3     1  UNL1        0.0899
@<TRIPOS>BOND
     1    18    19    1
     2    19    12    1
     3    12    13   ar
     4    13    14   ar
     5    14    15   ar
     6    15     7    1
     7     7     8   ar
     8     8     9   ar
     9     9    10   ar
    10    10     1    1
    11     1     2    2
    12     1     3   am
    13     3     4    1
    14     4     5    1
    15     5    20    1
    16    20    21    1
    17    21    22   ar
    18    22    23   ar
    19    23    24   ar
    20    24    28    1
    21    28    29    1
    22    29    30    1
    23    30    31    1
    24    31    32    1
    25    32    33    1
    26    32    34    1
    27    34    35    1
    28    24    25   ar
    29    25    26    1
    30    25    27   ar
    31     5     6    1
    32    10    11   ar
    33    15    16   ar
    34    16    17   ar
    35    17    12   ar
    36    11     7   ar
    37     6     3    1
    38    27    21   ar
    39    35    29    1
@<TRIPOS>MOLECULE
*****
 35 39 0 0 0
SMALL
GASTEIGER

@<TRIPOS>ATOM
      1 C         138.7806  142.6801  160.6844 C.2     1  UNL1        0.3047
      2 O         139.1681  144.1159  160.4884 O.2     1  UNL1       -0.2647
      3 N         138.5946  141.7845  159.4955 N.am    1  UNL1       -0.2647
      4 C         138.2227  140.3446  159.3003 C.3     1  UNL1        0.1391
      5 C         138.3316  140.5180  157.8142 C.3     1  UNL1        0.2052
      6 C         138.7035  141.9579  158.0096 C.3     1  UNL1        0.1391
      7 C         138.9449  141.5666  164.3990 C.ar    1  UNL1        0.2501
      8 N         137.5937  141.0509  164.0013 N.ar    1  UNL1       -0.1068
      9 N         137.3676  141.4052  162.5614 N.ar    1  UNL1       -0.1021
     10 C         138.5792  142.1399  162.0691 C.ar    1  UNL1        0.3043
     11 O         139.5540  142.2396  163.2049 O.2     1  UNL1       -0.4122
     12 C         140.8388  141.1650  168.4612 C.ar    1  UNL1        0.1387
     13 C         141.0978  142.3867  167.6305 C.ar    1  UNL1        0.0371
     14 C         140.4665  142.5206  166.2764 C.ar    1  UNL1        0.0078
     15 C         139.5762  141.4327  165.7531 C.ar    1  UNL1        0.0553
     16 C         139.3172  140.2110  166.5839 C.ar    1  UNL1        0.0078
     17 C         139.9486  140.0771  167.9379 C.ar    1  UNL1        0.0371
     18 C         140.7242  141.4767  171.0380 C.3     1  UNL1        0.2525
     19 O         141.4701  141.0311  169.8153 O.3     1  UNL1       -0.4714
     20 O         138.1456  139.6224  156.6255 O.3     1  UNL1       -0.4756
     21 C         139.2646  138.7300  156.1764 C.ar    1  UNL1        0.1408
     22 C         139.0252  137.7085  155.1045 C.ar    1  UNL1        0.0368
     23 C         140.1441  136.8161  154.6554 C.ar    1  UNL1        0.0024
     24 C         141.5026  136.9453  155.2784 C.ar    1  UNL1        0.0216
     25 C         141.7420  137.9668  156.3503 C.ar    1  UNL1        0.1405
     26 F         143.1004  138.0959  156.9732 F       1  UNL1       -0.2044
     27 C         140.6230  138.8592  156.7994 C.ar    1  UNL1        0.0662
     28 C         142.6215  136.0529  154.8293 C.3     1  UNL1        0.1015
     29 N         142.8048  134.7046  155.4604 N.3     1  UNL1       -0.2665
     30 C         143.5644  134.5759  156.7475 C.3     1  UNL1        0.0899
     31 C         143.7477  133.2275  157.3786 C.3     1  UNL1        0.0897
     32 N         143.1715  132.0078  156.7227 N.3     1  UNL1       -0.2691
     33 C         143.3548  130.6595  157.3537 C.3     1  UNL1        0.0897
     34 C         142.4119  132.1365  155.4356 C.3     1  UNL1        0.0897
     35 C         142.2286  133.4848  154.8045 C.3     1  UNL1        0.0899
@<TRIPOS>BOND
     1    18    19    1
     2    19    12    1
     3    12    13   ar
     4    13    14   ar
     5    14    15   ar
     6    15     7    1
     7     7     8   ar
     8     8     9   ar
     9     9    10   ar
    10    10     1    1
    11     1     2    2
    12     1     3   am
    13     3     4    1
    14     4     5    1
    15     5    20    1
    16    20    21    1
    17    21    22   ar
    18    22    23   ar
    19    23    24   ar
    20    24    28    1
    21    28    29    1
    22    29    30    1
    23    30    31    1
    24    31    32    1
    25    32    33    1
    26    32    34    1
    27    34    35    1
    28    24    25   ar
    29    25    26    1
    30    25    27   ar
    31     5     6    1
    32    10    11   ar
    33    15    16   ar
    34    16    17   ar
    35    17    12   ar
    36    11     7   ar
    37     6     3    1
    38    27    21   ar
    39    35    29    1
