@<TRIPOS>MOLECULE
*****
 24 27 0 0 0
SMALL
GASTEIGER

@<TRIPOS>ATOM
      1 C         140.5671  141.2213  166.2507 C.2     1  UNL1        0.0020
      2 C         140.8602  139.8796  165.6472 C.2     1  UNL1        0.0130
      3 C         140.4666  139.5934  164.2283 C.3     1  UNL1        0.1542
      4 C         141.1531  138.5380  165.0437 C.3     1  UNL1        0.0614
      5 C         141.4461  137.1964  164.4402 C.3     1  UNL1        0.0725
      6 N         141.0526  136.9102  163.0214 N.3     1  UNL1       -0.2972
      7 C         140.3661  137.9656  162.2060 C.3     1  UNL1        0.0725
      8 C         140.0731  139.3072  162.8095 C.3     1  UNL1        0.0614
      9 O         139.7801  140.6488  163.4130 O.3     1  UNL1       -0.4785
     10 C         139.4871  141.9904  164.0165 C.ar    1  UNL1        0.1386
     11 C         138.8006  143.0459  163.2011 C.ar    1  UNL1        0.0369
     12 C         138.5076  144.3875  163.8046 C.ar    1  UNL1        0.0031
     13 C         138.9011  144.6737  165.2234 C.ar    1  UNL1        0.0002
     14 C         139.5876  143.6183  166.0388 C.ar    1  UNL1        0.0030
     15 C         139.8807  142.2767  165.4353 C.ar    1  UNL1        0.0338
     16 H         140.4278  136.1043  163.0459 H       1  UNL1        0.1233
     17 O         142.1412  142.3662  171.9262 O.3     1  UNL1       -0.5055
     18 C         141.7477  142.0800  170.5074 C.ar    1  UNL1        0.1337
     19 C         142.6923  142.4019  169.3876 C.ar    1  UNL1        0.0366
     20 C         142.2988  142.1157  167.9687 C.ar    1  UNL1        0.0031
     21 C         140.9607  141.5075  167.6696 C.ar    1  UNL1        0.0001
     22 C         140.0159  141.1856  168.7894 C.ar    1  UNL1        0.0031
     23 C         140.4095  141.4718  170.2083 C.ar    1  UNL1        0.0366
     24 H         142.9771  142.7461  172.1131 H       1  UNL1        0.2922
@<TRIPOS>BOND
     1    17    18    1
     2    18    19   ar
     3    19    20   ar
     4    20    21   ar
     5    21     1    1
     6     1     2    2
     7     2     3    1
     8     3     4    1
     9     4     5    1
    10     5     6    1
    11     6     7    1
    12     7     8    1
    13     3     9    1
    14     9    10    1
    15    10    11   ar
    16    11    12   ar
    17    12    13   ar
    18    13    14   ar
    19    14    15   ar
    20    21    22   ar
    21    22    23   ar
    22    23    18   ar
    23    15     1    1
    24     8     3    1
    25    15    10   ar
    26    17    24    1
    27     6    16    1
@<TRIPOS>MOLECULE
*****
 24 27 0 0 0
SMALL
GASTEIGER

@<TRIPOS>ATOM
      1 C         140.5305  141.7996  166.4795 C.2     1  UNL1        0.0020
      2 C         140.3644  142.1139  167.9368 C.2     1  UNL1        0.0130
      3 C         141.1487  141.3509  168.9628 C.3     1  UNL1        0.1542
      4 C         140.1983  142.4282  169.3940 C.3     1  UNL1        0.0614
      5 C         140.0322  142.7425  170.8512 C.3     1  UNL1        0.0725
      6 N         140.8165  141.9795  171.8772 N.3     1  UNL1       -0.2972
      7 C         141.7669  140.9022  171.4460 C.3     1  UNL1        0.0725
      8 C         141.9330  140.5879  169.9887 C.3     1  UNL1        0.0614
      9 O         142.0992  140.2735  168.5314 O.3     1  UNL1       -0.4785
     10 C         142.2653  139.9592  167.0742 C.ar    1  UNL1        0.1386
     11 C         143.2157  138.8818  166.6429 C.ar    1  UNL1        0.0369
     12 C         143.3818  138.5675  165.1857 C.ar    1  UNL1        0.0031
     13 C         142.5975  139.3306  164.1597 C.ar    1  UNL1        0.0002
     14 C         141.6471  140.4079  164.5909 C.ar    1  UNL1        0.0030
     15 C         141.4809  140.7222  166.0482 C.ar    1  UNL1        0.0338
     16 H         140.1382  141.5415  172.5005 H       1  UNL1        0.1233
     17 O         137.3932  144.8517  162.3756 O.3     1  UNL1       -0.5055
     18 C         138.1776  144.0886  163.4015 C.ar    1  UNL1        0.1337
     19 C         137.6942  142.7485  163.8709 C.ar    1  UNL1        0.0366
     20 C         138.4785  141.9855  164.8969 C.ar    1  UNL1        0.0031
     21 C         139.7462  142.5626  165.4535 C.ar    1  UNL1        0.0001
     22 C         140.2296  143.9028  164.9841 C.ar    1  UNL1        0.0031
     23 C         139.4453  144.6658  163.9581 C.ar    1  UNL1        0.0366
     24 H         136.6013  144.4911  162.0279 H       1  UNL1        0.2922
@<TRIPOS>BOND
     1    17    18    1
     2    18    19   ar
     3    19    20   ar
     4    20    21   ar
     5    21     1    1
     6     1     2    2
     7     2     3    1
     8     3     4    1
     9     4     5    1
    10     5     6    1
    11     6     7    1
    12     7     8    1
    13     3     9    1
    14     9    10    1
    15    10    11   ar
    16    11    12   ar
    17    12    13   ar
    18    13    14   ar
    19    14    15   ar
    20    21    22   ar
    21    22    23   ar
    22    23    18   ar
    23    15     1    1
    24     8     3    1
    25    15    10   ar
    26    17    24    1
    27     6    16    1
@<TRIPOS>MOLECULE
*****
 24 27 0 0 0
SMALL
GASTEIGER

@<TRIPOS>ATOM
      1 C         141.2827  142.0677  166.1713 C.2     1  UNL1        0.0020
      2 C         141.9456  143.0318  165.2326 C.2     1  UNL1        0.0130
      3 C         141.7042  142.9268  163.7559 C.3     1  UNL1        0.1542
      4 C         142.6084  143.9958  164.2939 C.3     1  UNL1        0.0614
      5 C         143.2713  144.9599  163.3552 C.3     1  UNL1        0.0725
      6 N         143.0299  144.8549  161.8785 N.3     1  UNL1       -0.2972
      7 C         142.1256  143.7859  161.3405 C.3     1  UNL1        0.0725
      8 C         141.4627  142.8219  162.2792 C.3     1  UNL1        0.0614
      9 O         140.7998  141.8578  163.2179 O.3     1  UNL1       -0.4785
     10 C         140.1370  140.8937  164.1566 C.ar    1  UNL1        0.1386
     11 C         139.2326  139.8247  163.6186 C.ar    1  UNL1        0.0369
     12 C         138.5698  138.8606  164.5573 C.ar    1  UNL1        0.0031
     13 C         138.8112  138.9656  166.0340 C.ar    1  UNL1        0.0002
     14 C         139.7155  140.0346  166.5721 C.ar    1  UNL1        0.0030
     15 C         140.3784  140.9987  165.6333 C.ar    1  UNL1        0.0338
     16 H         143.9407  144.7181  161.4402 H       1  UNL1        0.1233
     17 O         142.2484  142.4875  172.0782 O.3     1  UNL1       -0.5055
     18 C         142.0070  142.3825  170.6015 C.ar    1  UNL1        0.1337
     19 C         142.9470  141.5901  169.7423 C.ar    1  UNL1        0.0366
     20 C         142.7056  141.4852  168.2656 C.ar    1  UNL1        0.0031
     21 C         141.5241  142.1726  167.6481 C.ar    1  UNL1        0.0001
     22 C         140.5839  142.9651  168.5073 C.ar    1  UNL1        0.0031
     23 C         140.8254  143.0700  169.9840 C.ar    1  UNL1        0.0366
     24 H         142.9864  142.0580  172.4640 H       1  UNL1        0.2922
@<TRIPOS>BOND
     1    17    18    1
     2    18    19   ar
     3    19    20   ar
     4    20    21   ar
     5    21     1    1
     6     1     2    2
     7     2     3    1
     8     3     4    1
     9     4     5    1
    10     5     6    1
    11     6     7    1
    12     7     8    1
    13     3     9    1
    14     9    10    1
    15    10    11   ar
    16    11    12   ar
    17    12    13   ar
    18    13    14   ar
    19    14    15   ar
    20    21    22   ar
    21    22    23   ar
    22    23    18   ar
    23    15     1    1
    24     8     3    1
    25    15    10   ar
    26    17    24    1
    27     6    16    1
@<TRIPOS>MOLECULE
*****
 24 27 0 0 0
SMALL
GASTEIGER

@<TRIPOS>ATOM
      1 C         142.1203  140.8464  166.4028 C.2     1  UNL1        0.0020
      2 C         143.2671  141.2684  165.5329 C.2     1  UNL1        0.0130
      3 C         143.2799  140.9012  164.0786 C.3     1  UNL1        0.1542
      4 C         144.4139  141.6903  164.6629 C.3     1  UNL1        0.0614
      5 C         145.5606  142.1122  163.7929 C.3     1  UNL1        0.0725
      6 N         145.5734  141.7451  162.3386 N.3     1  UNL1       -0.2972
      7 C         144.4395  140.9560  161.7543 C.3     1  UNL1        0.0725
      8 C         143.2928  140.5341  162.6242 C.3     1  UNL1        0.0614
      9 O         142.1459  140.1121  163.4942 O.3     1  UNL1       -0.4785
     10 C         140.9992  139.6902  164.3642 C.ar    1  UNL1        0.1386
     11 C         139.8651  138.9011  163.7798 C.ar    1  UNL1        0.0369
     12 C         138.7184  138.4791  164.6498 C.ar    1  UNL1        0.0031
     13 C         138.7056  138.8463  166.1041 C.ar    1  UNL1        0.0002
     14 C         139.8395  139.6353  166.6885 C.ar    1  UNL1        0.0030
     15 C         140.9863  140.0573  165.8185 C.ar    1  UNL1        0.0338
     16 H         146.4225  141.2027  162.1793 H       1  UNL1        0.1233
     17 O         142.0690  142.3150  172.2201 O.3     1  UNL1       -0.5055
     18 C         142.0818  141.9478  170.7658 C.ar    1  UNL1        0.1337
     19 C         141.4750  142.8733  169.7532 C.ar    1  UNL1        0.0366
     20 C         141.4879  142.5061  168.2989 C.ar    1  UNL1        0.0031
     21 C         142.1074  141.2135  167.8572 C.ar    1  UNL1        0.0001
     22 C         142.7142  140.2880  168.8697 C.ar    1  UNL1        0.0031
     23 C         142.7014  140.6551  170.3240 C.ar    1  UNL1        0.0366
     24 H         141.6819  143.1224  172.4961 H       1  UNL1        0.2922
@<TRIPOS>BOND
     1    17    18    1
     2    18    19   ar
     3    19    20   ar
     4    20    21   ar
     5    21     1    1
     6     1     2    2
     7     2     3    1
     8     3     4    1
     9     4     5    1
    10     5     6    1
    11     6     7    1
    12     7     8    1
    13     3     9    1
    14     9    10    1
    15    10    11   ar
    16    11    12   ar
    17    12    13   ar
    18    13    14   ar
    19    14    15   ar
    20    21    22   ar
    21    22    23   ar
    22    23    18   ar
    23    15     1    1
    24     8     3    1
    25    15    10   ar
    26    17    24    1
    27     6    16    1
@<TRIPOS>MOLECULE
*****
 24 27 0 0 0
SMALL
GASTEIGER

@<TRIPOS>ATOM
      1 C         140.3469  141.4956  166.2427 C.2     1  UNL1        0.0020
      2 C         139.4580  142.3639  165.4023 C.2     1  UNL1        0.0130
      3 C         139.4397  142.1979  163.9116 C.3     1  UNL1        0.1542
      4 C         138.5692  143.2320  164.5619 C.3     1  UNL1        0.0614
      5 C         137.6804  144.1001  163.7215 C.3     1  UNL1        0.0725
      6 N         137.6620  143.9342  162.2309 N.3     1  UNL1       -0.2972
      7 C         138.5325  142.9001  161.5806 C.3     1  UNL1        0.0725
      8 C         139.4213  142.0320  162.4209 C.3     1  UNL1        0.0614
      9 O         140.3102  141.1637  163.2613 O.3     1  UNL1       -0.4785
     10 C         141.1990  140.2956  164.1017 C.ar    1  UNL1        0.1386
     11 C         142.0695  139.2614  163.4514 C.ar    1  UNL1        0.0369
     12 C         142.9583  138.3933  164.2918 C.ar    1  UNL1        0.0031
     13 C         142.9767  138.5592  165.7825 C.ar    1  UNL1        0.0002
     14 C         142.1062  139.5933  166.4328 C.ar    1  UNL1        0.0030
     15 C         141.2174  140.4616  165.5924 C.ar    1  UNL1        0.0338
     16 H         137.9258  144.8347  161.8311 H       1  UNL1        0.1233
     17 O         140.4204  142.1594  172.2054 O.3     1  UNL1       -0.5055
     18 C         140.4020  141.9935  170.7147 C.ar    1  UNL1        0.1337
     19 C         139.6971  140.8212  170.0992 C.ar    1  UNL1        0.0366
     20 C         139.6787  140.6553  168.6085 C.ar    1  UNL1        0.0031
     21 C         140.3653  141.6616  167.7334 C.ar    1  UNL1        0.0001
     22 C         141.0702  142.8339  168.3489 C.ar    1  UNL1        0.0031
     23 C         141.0886  142.9999  169.8396 C.ar    1  UNL1        0.0366
     24 H         139.9915  141.5308  172.7521 H       1  UNL1        0.2922
@<TRIPOS>BOND
     1    17    18    1
     2    18    19   ar
     3    19    20   ar
     4    20    21   ar
     5    21     1    1
     6     1     2    2
     7     2     3    1
     8     3     4    1
     9     4     5    1
    10     5     6    1
    11     6     7    1
    12     7     8    1
    13     3     9    1
    14     9    10    1
    15    10    11   ar
    16    11    12   ar
    17    12    13   ar
    18    13    14   ar
    19    14    15   ar
    20    21    22   ar
    21    22    23   ar
    22    23    18   ar
    23    15     1    1
    24     8     3    1
    25    15    10   ar
    26    17    24    1
    27     6    16    1
@<TRIPOS>MOLECULE
*****
 24 27 0 0 0
SMALL
GASTEIGER

@<TRIPOS>ATOM
      1 C         142.1596  141.1805  166.4121 C.2     1  UNL1        0.0020
      2 C         142.4689  141.7229  167.7760 C.2     1  UNL1        0.0130
      3 C         141.5357  141.4543  168.9193 C.3     1  UNL1        0.1542
      4 C         142.7781  142.2651  169.1399 C.3     1  UNL1        0.0614
      5 C         143.0874  142.8074  170.5038 C.3     1  UNL1        0.0725
      6 N         142.1542  142.5388  171.6471 N.3     1  UNL1       -0.2972
      7 C         140.9118  141.7279  171.4264 C.3     1  UNL1        0.0725
      8 C         140.6025  141.1856  170.0625 C.3     1  UNL1        0.0614
      9 O         140.2932  140.6433  168.6986 O.3     1  UNL1       -0.4785
     10 C         139.9840  140.1010  167.3347 C.ar    1  UNL1        0.1386
     11 C         138.7415  139.2901  167.1140 C.ar    1  UNL1        0.0369
     12 C         138.4322  138.7478  165.7501 C.ar    1  UNL1        0.0031
     13 C         139.3654  139.0164  164.6068 C.ar    1  UNL1        0.0002
     14 C         140.6078  139.8273  164.8275 C.ar    1  UNL1        0.0030
     15 C         140.9171  140.3696  166.1914 C.ar    1  UNL1        0.0338
     16 H         141.8540  143.4468  172.0017 H       1  UNL1        0.1233
     17 O         145.8924  142.2550  161.8391 O.3     1  UNL1       -0.5055
     18 C         144.9592  141.9864  162.9824 C.ar    1  UNL1        0.1337
     19 C         143.9524  143.0217  163.3878 C.ar    1  UNL1        0.0366
     20 C         143.0192  142.7531  164.5311 C.ar    1  UNL1        0.0031
     21 C         143.0928  141.4492  165.2689 C.ar    1  UNL1        0.0001
     22 C         144.0996  140.4138  164.8634 C.ar    1  UNL1        0.0031
     23 C         145.0328  140.6824  163.7202 C.ar    1  UNL1        0.0366
     24 H         145.8464  143.0695  161.3783 H       1  UNL1        0.2922
@<TRIPOS>BOND
     1    17    18    1
     2    18    19   ar
     3    19    20   ar
     4    20    21   ar
     5    21     1    1
     6     1     2    2
     7     2     3    1
     8     3     4    1
     9     4     5    1
    10     5     6    1
    11     6     7    1
    12     7     8    1
    13     3     9    1
    14     9    10    1
    15    10    11   ar
    16    11    12   ar
    17    12    13   ar
    18    13    14   ar
    19    14    15   ar
    20    21    22   ar
    21    22    23   ar
    22    23    18   ar
    23    15     1    1
    24     8     3    1
    25    15    10   ar
    26    17    24    1
    27     6    16    1
@<TRIPOS>MOLECULE
*****
 24 27 0 0 0
SMALL
GASTEIGER

@<TRIPOS>ATOM
      1 C         141.1230  142.3233  165.4457 C.2     1  UNL1        0.0020
      2 C         142.5224  142.0319  164.9910 C.2     1  UNL1        0.0130
      3 C         142.9959  142.5272  163.6566 C.3     1  UNL1        0.1542
      4 C         143.9218  141.7405  164.5363 C.3     1  UNL1        0.0614
      5 C         145.3212  141.4492  164.0816 C.3     1  UNL1        0.0725
      6 N         145.7946  141.9445  162.7472 N.3     1  UNL1       -0.2972
      7 C         144.8687  142.7311  161.8675 C.3     1  UNL1        0.0725
      8 C         143.4693  143.0225  162.3223 C.3     1  UNL1        0.0614
      9 O         142.0699  143.3139  162.7770 O.3     1  UNL1       -0.4785
     10 C         140.6705  143.6052  163.2317 C.ar    1  UNL1        0.1386
     11 C         139.7445  144.3919  162.3521 C.ar    1  UNL1        0.0369
     12 C         138.3451  144.6833  162.8068 C.ar    1  UNL1        0.0031
     13 C         137.8717  144.1880  164.1411 C.ar    1  UNL1        0.0002
     14 C         138.7976  143.4013  165.0208 C.ar    1  UNL1        0.0030
     15 C         140.1971  143.1099  164.5661 C.ar    1  UNL1        0.0338
     16 H         146.0816  141.1240  162.2135 H       1  UNL1        0.1233
     17 O         139.2292  140.3422  170.7832 O.3     1  UNL1       -0.5055
     18 C         139.7026  140.8374  169.4488 C.ar    1  UNL1        0.1337
     19 C         140.3377  142.1914  169.3336 C.ar    1  UNL1        0.0366
     20 C         140.8112  142.6867  167.9993 C.ar    1  UNL1        0.0031
     21 C         140.6495  141.8280  166.7801 C.ar    1  UNL1        0.0001
     22 C         140.0144  140.4739  166.8952 C.ar    1  UNL1        0.0031
     23 C         139.5410  139.9786  168.2296 C.ar    1  UNL1        0.0366
     24 H         139.3301  140.8786  171.5448 H       1  UNL1        0.2922
@<TRIPOS>BOND
     1    17    18    1
     2    18    19   ar
     3    19    20   ar
     4    20    21   ar
     5    21     1    1
     6     1     2    2
     7     2     3    1
     8     3     4    1
     9     4     5    1
    10     5     6    1
    11     6     7    1
    12     7     8    1
    13     3     9    1
    14     9    10    1
    15    10    11   ar
    16    11    12   ar
    17    12    13   ar
    18    13    14   ar
    19    14    15   ar
    20    21    22   ar
    21    22    23   ar
    22    23    18   ar
    23    15     1    1
    24     8     3    1
    25    15    10   ar
    26    17    24    1
    27     6    16    1
@<TRIPOS>MOLECULE
*****
 24 27 0 0 0
SMALL
GASTEIGER

@<TRIPOS>ATOM
      1 C         139.9645  142.1661  166.1445 C.2     1  UNL1        0.0020
      2 C         140.2761  142.4445  167.5852 C.2     1  UNL1        0.0130
      3 C         140.1679  141.3466  168.6016 C.3     1  UNL1        0.1542
      4 C         140.5875  142.7228  169.0258 C.3     1  UNL1        0.0614
      5 C         140.8990  143.0011  170.4665 C.3     1  UNL1        0.0725
      6 N         140.7909  141.9032  171.4829 N.3     1  UNL1       -0.2972
      7 C         140.3713  140.5270  171.0586 C.3     1  UNL1        0.0725
      8 C         140.0598  140.2487  169.6179 C.3     1  UNL1        0.0614
      9 O         139.7483  139.9704  168.1772 O.3     1  UNL1       -0.4785
     10 C         139.4368  139.6921  166.7366 C.ar    1  UNL1        0.1386
     11 C         139.0172  138.3158  166.3123 C.ar    1  UNL1        0.0369
     12 C         138.7057  138.0375  164.8716 C.ar    1  UNL1        0.0031
     13 C         138.8138  139.1354  163.8553 C.ar    1  UNL1        0.0002
     14 C         139.2334  140.5116  164.2795 C.ar    1  UNL1        0.0030
     15 C         139.5449  140.7899  165.7202 C.ar    1  UNL1        0.0338
     16 H         140.1163  142.2144  172.1818 H       1  UNL1        0.1233
     17 O         140.3970  146.5576  162.0790 O.3     1  UNL1       -0.5055
     18 C         140.2889  145.4597  163.0954 C.ar    1  UNL1        0.1337
     19 C         141.5283  144.7915  163.6124 C.ar    1  UNL1        0.0366
     20 C         141.4202  143.6937  164.6288 C.ar    1  UNL1        0.0031
     21 C         140.0727  143.2640  165.1281 C.ar    1  UNL1        0.0001
     22 C         138.8331  143.9321  164.6111 C.ar    1  UNL1        0.0031
     23 C         138.9413  145.0300  163.5948 C.ar    1  UNL1        0.0366
     24 H         141.2388  146.8260  161.7671 H       1  UNL1        0.2922
@<TRIPOS>BOND
     1    17    18    1
     2    18    19   ar
     3    19    20   ar
     4    20    21   ar
     5    21     1    1
     6     1     2    2
     7     2     3    1
     8     3     4    1
     9     4     5    1
    10     5     6    1
    11     6     7    1
    12     7     8    1
    13     3     9    1
    14     9    10    1
    15    10    11   ar
    16    11    12   ar
    17    12    13   ar
    18    13    14   ar
    19    14    15   ar
    20    21    22   ar
    21    22    23   ar
    22    23    18   ar
    23    15     1    1
    24     8     3    1
    25    15    10   ar
    26    17    24    1
    27     6    16    1
@<TRIPOS>MOLECULE
*****
 24 27 0 0 0
SMALL
GASTEIGER

@<TRIPOS>ATOM
      1 C         141.4512  140.3917  166.1084 C.2     1  UNL1        0.0020
      2 C         140.6661  139.4402  165.2550 C.2     1  UNL1        0.0130
      3 C         140.8702  139.4222  163.7690 C.3     1  UNL1        0.1542
      4 C         139.8811  138.4887  164.4015 C.3     1  UNL1        0.0614
      5 C         139.0960  137.5373  163.5481 C.3     1  UNL1        0.0725
      6 N         139.3002  137.5193  162.0621 N.3     1  UNL1       -0.2972
      7 C         140.2893  138.4528  161.4296 C.3     1  UNL1        0.0725
      8 C         141.0743  139.4043  162.2831 C.3     1  UNL1        0.0614
      9 O         141.8594  140.3558  163.1365 O.3     1  UNL1       -0.4785
     10 C         142.6445  141.3073  163.9900 C.ar    1  UNL1        0.1386
     11 C         143.6337  142.2408  163.3575 C.ar    1  UNL1        0.0369
     12 C         144.4187  143.1923  164.2109 C.ar    1  UNL1        0.0031
     13 C         144.2146  143.2102  165.6969 C.ar    1  UNL1        0.0002
     14 C         143.2254  142.2767  166.3294 C.ar    1  UNL1        0.0030
     15 C         142.4403  141.3252  165.4759 C.ar    1  UNL1        0.0338
     16 H         138.3942  137.7188  161.6380 H       1  UNL1        0.1233
     17 O         140.6347  140.4635  172.0522 O.3     1  UNL1       -0.5055
     18 C         140.8388  140.4455  170.5662 C.ar    1  UNL1        0.1337
     19 C         141.9129  139.5868  169.9670 C.ar    1  UNL1        0.0366
     20 C         142.1170  139.5689  168.4811 C.ar    1  UNL1        0.0031
     21 C         141.2471  140.4096  167.5943 C.ar    1  UNL1        0.0001
     22 C         140.1730  141.2684  168.1935 C.ar    1  UNL1        0.0031
     23 C         139.9689  141.2863  169.6795 C.ar    1  UNL1        0.0366
     24 H         141.1781  139.9383  172.6061 H       1  UNL1        0.2922
@<TRIPOS>BOND
     1    17    18    1
     2    18    19   ar
     3    19    20   ar
     4    20    21   ar
     5    21     1    1
     6     1     2    2
     7     2     3    1
     8     3     4    1
     9     4     5    1
    10     5     6    1
    11     6     7    1
    12     7     8    1
    13     3     9    1
    14     9    10    1
    15    10    11   ar
    16    11    12   ar
    17    12    13   ar
    18    13    14   ar
    19    14    15   ar
    20    21    22   ar
    21    22    23   ar
    22    23    18   ar
    23    15     1    1
    24     8     3    1
    25    15    10   ar
    26    17    24    1
    27     6    16    1
