@<TRIPOS>MOLECULE
*****
 47 52 0 0 0
SMALL
GASTEIGER

@<TRIPOS>ATOM
      1 C         139.4974  139.7221  166.8008 C.ar    1  UNL1       -0.0173
      2 C         139.3833  139.9759  168.2748 C.ar    1  UNL1       -0.0009
      3 C         140.6152  139.9932  169.1305 C.ar    1  UNL1        0.0395
      4 C         141.9612  139.7565  168.5121 C.ar    1  UNL1        0.1683
      5 O         143.1931  139.7737  169.3678 O.3     1  UNL1       -0.5028
      6 C         142.0753  139.5027  167.0382 C.ar    1  UNL1        0.1784
      7 C         140.8434  139.4855  166.1826 C.ar    1  UNL1        0.0364
      8 H         143.1218  139.9323  170.2885 H       1  UNL1        0.2923
      9 C         138.2655  139.7049  165.9452 C.3     1  UNL1        0.0469
     10 C         138.3369  144.0701  162.7531 C.ar    1  UNL1        0.1718
     11 C         138.4640  142.8859  161.8413 C.ar    1  UNL1        0.0356
     12 C         138.4780  141.4985  162.4114 C.ar    1  UNL1       -0.0203
     13 C         138.3648  141.2954  163.8933 C.ar    1  UNL1       -0.0082
     14 C         138.2376  142.4796  164.8050 C.ar    1  UNL1        0.0365
     15 C         138.2237  143.8670  164.2349 C.ar    1  UNL1        0.1674
     16 O         138.0965  145.0513  165.1468 O.3     1  UNL1       -0.5029
     17 C         138.3787  139.9080  164.4633 C.3     1  UNL1        0.0843
     18 N         138.5059  138.7238  163.5516 N.3     1  UNL1       -0.2685
     19 C         138.5198  137.3364  164.1217 C.3     1  UNL1        0.0899
     20 C         138.6190  138.9268  162.0697 C.3     1  UNL1        0.0771
     21 C         138.6051  140.3142  161.4996 C.3     1  UNL1        0.0435
     22 H         138.0258  144.9244  166.0724 H       1  UNL1        0.2923
     23 C         139.6117  146.1967  161.9770 C.3     1  UNL1        0.2526
     24 O         138.3229  145.4575  162.1830 O.3     1  UNL1       -0.4684
     25 O         143.4213  139.2661  166.4199 O.3     1  UNL1       -0.4505
     26 C         143.5746  139.2822  164.9279 C.ar    1  UNL1        0.1454
     27 C         142.8082  138.3068  164.0846 C.ar    1  UNL1        0.0372
     28 C         142.9615  138.3229  162.5925 C.ar    1  UNL1       -0.0011
     29 C         143.8811  139.3145  161.9438 C.ar    1  UNL1       -0.0203
     30 C         144.6475  140.2900  162.7870 C.ar    1  UNL1       -0.0011
     31 C         144.4942  140.2739  164.2791 C.ar    1  UNL1        0.0372
     32 C         144.0344  139.3307  160.4517 C.3     1  UNL1        0.0468
     33 C         142.8267  139.4835  159.5753 C.3     1  UNL1        0.0843
     34 C         142.1589  140.8203  159.4450 C.ar    1  UNL1       -0.0081
     35 C         142.6987  142.0042  160.1912 C.ar    1  UNL1        0.0368
     36 C         142.0308  143.3410  160.0609 C.ar    1  UNL1        0.1721
     37 C         140.8232  143.4938  159.1845 C.ar    1  UNL1        0.1721
     38 C         140.2834  142.3099  158.4384 C.ar    1  UNL1        0.0356
     39 C         140.9512  140.9731  158.5686 C.ar    1  UNL1       -0.0203
     40 C         140.4113  139.7891  157.8224 C.3     1  UNL1        0.0435
     41 C         141.0792  138.4523  157.9527 C.3     1  UNL1        0.0771
     42 N         142.2869  138.2995  158.8291 N.3     1  UNL1       -0.2685
     43 C         142.9548  136.9627  158.9594 C.3     1  UNL1        0.0899
     44 O         142.5707  144.5250  160.8071 O.3     1  UNL1       -0.4684
     45 C         142.8220  144.4305  162.2829 C.3     1  UNL1        0.2526
     46 O         140.1553  144.8306  159.0543 O.3     1  UNL1       -0.4684
     47 C         140.4047  145.6787  157.8425 C.3     1  UNL1        0.2526
@<TRIPOS>BOND
     1    23    24    1
     2    24    10    1
     3    10    11   ar
     4    11    12   ar
     5    12    13   ar
     6    13    14   ar
     7    14    15   ar
     8    15    16    1
     9    13    17    1
    10    17     9    1
    11     9     1    1
    12     1     2   ar
    13     2     3   ar
    14     3     4   ar
    15     4     5    1
    16     4     6   ar
    17     6    25    1
    18    25    26    1
    19    26    27   ar
    20    27    28   ar
    21    28    29   ar
    22    29    32    1
    23    33    32    1
    24    33    34    1
    25    34    35   ar
    26    35    36   ar
    27    36    44    1
    28    44    45    1
    29    36    37   ar
    30    37    46    1
    31    46    47    1
    32    37    38   ar
    33    38    39   ar
    34    39    40    1
    35    40    41    1
    36    41    42    1
    37    42    43    1
    38    29    30   ar
    39    30    31   ar
    40     6     7   ar
    41    17    18    1
    42    18    19    1
    43    18    20    1
    44    20    21    1
    45    15    10   ar
    46     7     1   ar
    47    21    12    1
    48    31    26   ar
    49    42    33    1
    50    39    34   ar
    51    16    22    1
    52     5     8    1
@<TRIPOS>MOLECULE
*****
 47 52 0 0 0
SMALL
GASTEIGER

@<TRIPOS>ATOM
      1 C         139.2455  142.3473  158.1657 C.ar    1  UNL1       -0.0173
      2 C         139.3220  142.8493  156.7543 C.ar    1  UNL1       -0.0009
      3 C         139.7798  144.2513  156.4807 C.ar    1  UNL1        0.0395
      4 C         140.1611  145.1512  157.6187 C.ar    1  UNL1        0.1683
      5 O         140.6190  146.5532  157.3451 O.3     1  UNL1       -0.5028
      6 C         140.0846  144.6492  159.0300 C.ar    1  UNL1        0.1784
      7 C         139.6268  143.2472  159.3036 C.ar    1  UNL1        0.0364
      8 H         140.6668  146.8668  156.4635 H       1  UNL1        0.2923
      9 C         138.7876  140.9453  158.4393 C.3     1  UNL1        0.0469
     10 C         138.4171  139.7741  163.7062 C.ar    1  UNL1        0.1718
     11 C         139.5886  138.9938  163.1879 C.ar    1  UNL1        0.0356
     12 C         139.9741  139.0915  161.7416 C.ar    1  UNL1       -0.0203
     13 C         139.1881  139.9695  160.8136 C.ar    1  UNL1       -0.0082
     14 C         138.0167  140.7499  161.3319 C.ar    1  UNL1        0.0365
     15 C         137.6312  140.6522  162.7782 C.ar    1  UNL1        0.1674
     16 O         136.4596  141.4326  163.2965 O.3     1  UNL1       -0.5029
     17 C         139.5736  140.0672  159.3673 C.3     1  UNL1        0.0843
     18 N         140.7451  139.2869  158.8490 N.3     1  UNL1       -0.2685
     19 C         141.1306  139.3846  157.4026 C.3     1  UNL1        0.0899
     20 C         141.5311  138.4088  159.7770 C.3     1  UNL1        0.0771
     21 C         141.1456  138.3111  161.2233 C.3     1  UNL1        0.0435
     22 H         135.9686  141.9811  162.7168 H       1  UNL1        0.2923
     23 C         138.4974  138.5124  165.9759 C.3     1  UNL1        0.2526
     24 O         138.0316  139.6764  165.1526 O.3     1  UNL1       -0.4684
     25 O         140.4659  145.5491  160.1679 O.3     1  UNL1       -0.4505
     26 C         141.3158  145.0242  161.2869 C.ar    1  UNL1        0.1454
     27 C         142.4871  144.1368  160.9864 C.ar    1  UNL1        0.0372
     28 C         143.3370  143.6120  162.1054 C.ar    1  UNL1       -0.0011
     29 C         143.0156  143.9745  163.5249 C.ar    1  UNL1       -0.0203
     30 C         141.8442  144.8620  163.8255 C.ar    1  UNL1       -0.0011
     31 C         140.9943  145.3868  162.7065 C.ar    1  UNL1        0.0372
     32 C         143.8655  143.4497  164.6439 C.3     1  UNL1        0.0468
     33 C         143.8597  141.9849  164.9666 C.3     1  UNL1        0.0843
     34 C         142.9103  141.4474  165.9961 C.ar    1  UNL1       -0.0081
     35 C         141.9667  142.3748  166.7028 C.ar    1  UNL1        0.0368
     36 C         141.0173  141.8373  167.7323 C.ar    1  UNL1        0.1721
     37 C         141.0115  140.3725  168.0550 C.ar    1  UNL1        0.1721
     38 C         141.9551  139.4451  167.3483 C.ar    1  UNL1        0.0356
     39 C         142.9045  139.9826  166.3188 C.ar    1  UNL1       -0.0203
     40 C         143.8481  139.0551  165.6121 C.3     1  UNL1        0.0435
     41 C         144.7976  139.5926  164.5826 C.3     1  UNL1        0.0771
     42 N         144.8033  141.0575  164.2599 N.3     1  UNL1       -0.2685
     43 C         145.7527  141.5950  163.2305 C.3     1  UNL1        0.0899
     44 O         140.0736  142.7648  168.4390 O.3     1  UNL1       -0.4684
     45 C         140.5280  143.5108  169.6585 C.3     1  UNL1        0.2526
     46 O         140.0621  139.8350  169.0844 O.3     1  UNL1       -0.4684
     47 C         140.4155  139.9063  170.5404 C.3     1  UNL1        0.2526
@<TRIPOS>BOND
     1    23    24    1
     2    24    10    1
     3    10    11   ar
     4    11    12   ar
     5    12    13   ar
     6    13    14   ar
     7    14    15   ar
     8    15    16    1
     9    13    17    1
    10    17     9    1
    11     9     1    1
    12     1     2   ar
    13     2     3   ar
    14     3     4   ar
    15     4     5    1
    16     4     6   ar
    17     6    25    1
    18    25    26    1
    19    26    27   ar
    20    27    28   ar
    21    28    29   ar
    22    29    32    1
    23    33    32    1
    24    33    34    1
    25    34    35   ar
    26    35    36   ar
    27    36    44    1
    28    44    45    1
    29    36    37   ar
    30    37    46    1
    31    46    47    1
    32    37    38   ar
    33    38    39   ar
    34    39    40    1
    35    40    41    1
    36    41    42    1
    37    42    43    1
    38    29    30   ar
    39    30    31   ar
    40     6     7   ar
    41    17    18    1
    42    18    19    1
    43    18    20    1
    44    20    21    1
    45    15    10   ar
    46     7     1   ar
    47    21    12    1
    48    31    26   ar
    49    42    33    1
    50    39    34   ar
    51    16    22    1
    52     5     8    1
@<TRIPOS>MOLECULE
*****
 47 52 0 0 0
SMALL
GASTEIGER

@<TRIPOS>ATOM
      1 C         140.9057  143.1080  158.6571 C.ar    1  UNL1       -0.0173
      2 C         141.3710  143.5735  157.3092 C.ar    1  UNL1       -0.0009
      3 C         142.8279  143.5139  156.9569 C.ar    1  UNL1        0.0395
      4 C         143.8193  142.9889  157.9526 C.ar    1  UNL1        0.1683
      5 O         145.2762  142.9293  157.6004 O.3     1  UNL1       -0.5028
      6 C         143.3540  142.5234  159.3005 C.ar    1  UNL1        0.1784
      7 C         141.8971  142.5830  159.6527 C.ar    1  UNL1        0.0364
      8 H         145.5669  143.2201  156.7584 H       1  UNL1        0.2923
      9 C         139.4488  143.1676  159.0093 C.3     1  UNL1        0.0469
     10 C         139.1120  143.2015  164.4070 C.ar    1  UNL1        0.1718
     11 C         138.4693  141.9227  163.9581 C.ar    1  UNL1        0.0356
     12 C         138.3928  141.5946  162.4964 C.ar    1  UNL1       -0.0203
     13 C         138.9591  142.5452  161.4837 C.ar    1  UNL1       -0.0082
     14 C         139.6018  143.8239  161.9326 C.ar    1  UNL1        0.0365
     15 C         139.6783  144.1521  163.3943 C.ar    1  UNL1        0.1674
     16 O         140.3210  145.4310  163.8432 O.3     1  UNL1       -0.5029
     17 C         138.8826  142.2170  160.0220 C.3     1  UNL1        0.0843
     18 N         138.2399  140.9382  159.5731 N.3     1  UNL1       -0.2685
     19 C         138.1634  140.6100  158.1114 C.3     1  UNL1        0.0899
     20 C         137.6736  139.9875  160.5859 C.3     1  UNL1        0.0771
     21 C         137.7500  140.3157  162.0475 C.3     1  UNL1        0.0435
     22 H         140.6747  146.0248  163.2106 H       1  UNL1        0.2923
     23 C         140.3703  143.0825  166.6769 C.3     1  UNL1        0.2526
     24 O         139.1885  143.5297  165.8687 O.3     1  UNL1       -0.4684
     25 O         144.3454  141.9983  160.2961 O.3     1  UNL1       -0.4505
     26 C         143.8822  141.1357  161.4324 C.ar    1  UNL1        0.1454
     27 C         143.2222  141.7590  162.6265 C.ar    1  UNL1        0.0372
     28 C         142.7589  140.8964  163.7629 C.ar    1  UNL1       -0.0011
     29 C         142.9557  139.4105  163.7051 C.ar    1  UNL1       -0.0203
     30 C         143.6158  138.7871  162.5110 C.ar    1  UNL1       -0.0011
     31 C         144.0790  139.6498  161.3747 C.ar    1  UNL1        0.0372
     32 C         142.4925  138.5479  164.8415 C.3     1  UNL1        0.0468
     33 C         141.1039  138.7066  165.3859 C.3     1  UNL1        0.0843
     34 C         140.8926  139.3429  166.7278 C.ar    1  UNL1       -0.0081
     35 C         142.0699  139.8203  167.5252 C.ar    1  UNL1        0.0368
     36 C         141.8586  140.4566  168.8671 C.ar    1  UNL1        0.1721
     37 C         140.4700  140.6153  169.4115 C.ar    1  UNL1        0.1721
     38 C         139.2927  140.1379  168.6141 C.ar    1  UNL1        0.0356
     39 C         139.5039  139.5016  167.2723 C.ar    1  UNL1       -0.0203
     40 C         138.3265  139.0242  166.4749 C.3     1  UNL1        0.0435
     41 C         138.5378  138.3879  165.1330 C.3     1  UNL1        0.0771
     42 N         139.9265  138.2292  164.5886 N.3     1  UNL1       -0.2685
     43 C         140.1378  137.5930  163.2467 C.3     1  UNL1        0.0899
     44 O         143.0360  140.9340  169.6645 O.3     1  UNL1       -0.4684
     45 C         143.4642  142.3693  169.5836 C.3     1  UNL1        0.2526
     46 O         140.2587  141.2515  170.7534 O.3     1  UNL1       -0.4684
     47 C         139.9095  142.7073  170.8465 C.3     1  UNL1        0.2526
@<TRIPOS>BOND
     1    23    24    1
     2    24    10    1
     3    10    11   ar
     4    11    12   ar
     5    12    13   ar
     6    13    14   ar
     7    14    15   ar
     8    15    16    1
     9    13    17    1
    10    17     9    1
    11     9     1    1
    12     1     2   ar
    13     2     3   ar
    14     3     4   ar
    15     4     5    1
    16     4     6   ar
    17     6    25    1
    18    25    26    1
    19    26    27   ar
    20    27    28   ar
    21    28    29   ar
    22    29    32    1
    23    33    32    1
    24    33    34    1
    25    34    35   ar
    26    35    36   ar
    27    36    44    1
    28    44    45    1
    29    36    37   ar
    30    37    46    1
    31    46    47    1
    32    37    38   ar
    33    38    39   ar
    34    39    40    1
    35    40    41    1
    36    41    42    1
    37    42    43    1
    38    29    30   ar
    39    30    31   ar
    40     6     7   ar
    41    17    18    1
    42    18    19    1
    43    18    20    1
    44    20    21    1
    45    15    10   ar
    46     7     1   ar
    47    21    12    1
    48    31    26   ar
    49    42    33    1
    50    39    34   ar
    51    16    22    1
    52     5     8    1
@<TRIPOS>MOLECULE
*****
 47 52 0 0 0
SMALL
GASTEIGER

@<TRIPOS>ATOM
      1 C         142.7564  140.6739  158.4175 C.ar    1  UNL1       -0.0173
      2 C         143.0445  140.9242  156.9668 C.ar    1  UNL1       -0.0009
      3 C         143.1333  142.3302  156.4516 C.ar    1  UNL1        0.0395
      4 C         142.9340  143.4857  157.3870 C.ar    1  UNL1        0.1683
      5 O         143.0228  144.8917  156.8718 O.3     1  UNL1       -0.5028
      6 C         142.6459  143.2354  158.8376 C.ar    1  UNL1        0.1784
      7 C         142.5571  141.8294  159.3529 C.ar    1  UNL1        0.0364
      8 H         143.2028  145.0481  155.9656 H       1  UNL1        0.2923
      9 C         142.6675  139.2680  158.9327 C.3     1  UNL1        0.0469
     10 C         142.8832  139.1951  164.3363 C.ar    1  UNL1        0.1718
     11 C         141.4950  138.7613  163.9694 C.ar    1  UNL1        0.0356
     12 C         141.0940  138.6711  162.5268 C.ar    1  UNL1       -0.0203
     13 C         142.0813  139.0146  161.4511 C.ar    1  UNL1       -0.0082
     14 C         143.4695  139.4485  161.8179 C.ar    1  UNL1        0.0365
     15 C         143.8704  139.5387  163.2605 C.ar    1  UNL1        0.1674
     16 O         145.2587  139.9726  163.6274 O.3     1  UNL1       -0.5029
     17 C         141.6803  138.9244  160.0085 C.3     1  UNL1        0.0843
     18 N         140.2921  138.4905  159.6416 N.3     1  UNL1       -0.2685
     19 C         139.8911  138.4003  158.1990 C.3     1  UNL1        0.0899
     20 C         139.3048  138.1469  160.7174 C.3     1  UNL1        0.0771
     21 C         139.7057  138.2372  162.1600 C.3     1  UNL1        0.0435
     22 H         145.8754  140.1872  162.9554 H       1  UNL1        0.2923
     23 C         143.8953  138.0987  166.4631 C.3     1  UNL1        0.2526
     24 O         143.2841  139.2854  165.7789 O.3     1  UNL1       -0.4684
     25 O         142.4466  144.3909  159.7730 O.3     1  UNL1       -0.4505
     26 C         141.7651  144.1790  161.0923 C.ar    1  UNL1        0.1454
     27 C         140.4803  144.8911  161.3957 C.ar    1  UNL1        0.0372
     28 C         139.7988  144.6792  162.7150 C.ar    1  UNL1       -0.0011
     29 C         140.4021  143.7552  163.7310 C.ar    1  UNL1       -0.0203
     30 C         141.6870  143.0431  163.4276 C.ar    1  UNL1       -0.0011
     31 C         142.3685  143.2550  162.1083 C.ar    1  UNL1        0.0372
     32 C         139.7206  143.5434  165.0503 C.3     1  UNL1        0.0468
     33 C         139.4524  142.1515  165.5409 C.3     1  UNL1        0.0843
     34 C         140.2539  141.5893  166.6774 C.ar    1  UNL1       -0.0081
     35 C         141.3237  142.4190  167.3232 C.ar    1  UNL1        0.0368
     36 C         142.1252  141.8568  168.4597 C.ar    1  UNL1        0.1721
     37 C         141.8569  140.4649  168.9503 C.ar    1  UNL1        0.1721
     38 C         140.7872  139.6353  168.3044 C.ar    1  UNL1        0.0356
     39 C         139.9856  140.1975  167.1680 C.ar    1  UNL1       -0.0203
     40 C         138.9158  139.3677  166.5221 C.3     1  UNL1        0.0435
     41 C         138.1143  139.9299  165.3857 C.3     1  UNL1        0.0771
     42 N         138.3826  141.3218  164.8951 N.3     1  UNL1       -0.2685
     43 C         137.5811  141.8840  163.7586 C.3     1  UNL1        0.0899
     44 O         143.1950  142.6865  169.1055 O.3     1  UNL1       -0.4684
     45 C         142.9818  143.2471  170.4804 C.3     1  UNL1        0.2526
     46 O         142.6585  139.9028  170.0867 O.3     1  UNL1       -0.4684
     47 C         142.8615  138.4209  170.2004 C.3     1  UNL1        0.2526
@<TRIPOS>BOND
     1    23    24    1
     2    24    10    1
     3    10    11   ar
     4    11    12   ar
     5    12    13   ar
     6    13    14   ar
     7    14    15   ar
     8    15    16    1
     9    13    17    1
    10    17     9    1
    11     9     1    1
    12     1     2   ar
    13     2     3   ar
    14     3     4   ar
    15     4     5    1
    16     4     6   ar
    17     6    25    1
    18    25    26    1
    19    26    27   ar
    20    27    28   ar
    21    28    29   ar
    22    29    32    1
    23    33    32    1
    24    33    34    1
    25    34    35   ar
    26    35    36   ar
    27    36    44    1
    28    44    45    1
    29    36    37   ar
    30    37    46    1
    31    46    47    1
    32    37    38   ar
    33    38    39   ar
    34    39    40    1
    35    40    41    1
    36    41    42    1
    37    42    43    1
    38    29    30   ar
    39    30    31   ar
    40     6     7   ar
    41    17    18    1
    42    18    19    1
    43    18    20    1
    44    20    21    1
    45    15    10   ar
    46     7     1   ar
    47    21    12    1
    48    31    26   ar
    49    42    33    1
    50    39    34   ar
    51    16    22    1
    52     5     8    1
@<TRIPOS>MOLECULE
*****
 47 52 0 0 0
SMALL
GASTEIGER

@<TRIPOS>ATOM
      1 C         143.8552  140.5061  158.3910 C.ar    1  UNL1       -0.0173
      2 C         143.7900  140.0392  156.9669 C.ar    1  UNL1       -0.0009
      3 C         143.3067  138.6543  156.6532 C.ar    1  UNL1        0.0395
      4 C         142.8886  137.7363  157.7635 C.ar    1  UNL1        0.1683
      5 O         142.4053  136.3514  157.4497 O.3     1  UNL1       -0.5028
      6 C         142.9538  138.2033  159.1874 C.ar    1  UNL1        0.1784
      7 C         143.4372  139.5882  159.5011 C.ar    1  UNL1        0.0364
      8 H         142.3645  136.0597  156.5602 H       1  UNL1        0.2923
      9 C         144.3386  141.8910  158.7047 C.3     1  UNL1        0.0469
     10 C         144.4031  143.2399  163.9417 C.ar    1  UNL1        0.1718
     11 C         143.2680  144.0054  163.3289 C.ar    1  UNL1        0.0356
     12 C         142.9681  143.8595  161.8664 C.ar    1  UNL1       -0.0203
     13 C         143.8033  142.9482  161.0168 C.ar    1  UNL1       -0.0082
     14 C         144.9384  142.1827  161.6296 C.ar    1  UNL1        0.0365
     15 C         145.2382  142.3286  163.0921 C.ar    1  UNL1        0.1674
     16 O         146.3734  141.5631  163.7049 O.3     1  UNL1       -0.5029
     17 C         143.5034  142.8023  159.5544 C.3     1  UNL1        0.0843
     18 N         142.3683  143.5678  158.9415 N.3     1  UNL1       -0.2685
     19 C         142.0684  143.4219  157.4791 C.3     1  UNL1        0.0899
     20 C         141.5330  144.4792  159.7911 C.3     1  UNL1        0.0771
     21 C         141.8329  144.6250  161.2536 C.3     1  UNL1        0.0435
     22 H         146.8951  140.9938  163.1742 H       1  UNL1        0.2923
     23 C         143.7659  142.8083  166.4232 C.3     1  UNL1        0.2526
     24 O         144.7030  143.3858  165.4042 O.3     1  UNL1       -0.4684
     25 O         142.5358  137.2853  160.2976 O.3     1  UNL1       -0.4505
     26 C         141.7035  137.8089  161.4304 C.ar    1  UNL1        0.1454
     27 C         142.3497  138.1521  162.7397 C.ar    1  UNL1        0.0372
     28 C         141.5174  138.6756  163.8725 C.ar    1  UNL1       -0.0011
     29 C         140.0388  138.8559  163.6959 C.ar    1  UNL1       -0.0203
     30 C         139.3925  138.5127  162.3865 C.ar    1  UNL1       -0.0011
     31 C         140.2248  137.9892  161.2537 C.ar    1  UNL1        0.0372
     32 C         139.2065  139.3794  164.8287 C.3     1  UNL1        0.0468
     33 C         139.4828  140.7402  165.3959 C.3     1  UNL1        0.0843
     34 C         139.1872  141.9658  164.5831 C.ar    1  UNL1       -0.0081
     35 C         138.6154  141.8305  163.2030 C.ar    1  UNL1        0.0368
     36 C         138.3198  143.0560  162.3902 C.ar    1  UNL1        0.1721
     37 C         138.5960  144.4168  162.9574 C.ar    1  UNL1        0.1721
     38 C         139.1679  144.5521  164.3375 C.ar    1  UNL1        0.0356
     39 C         139.4635  143.3266  165.1503 C.ar    1  UNL1       -0.0203
     40 C         140.0355  143.4619  166.5304 C.3     1  UNL1        0.0435
     41 C         140.3310  142.2364  167.3433 C.3     1  UNL1        0.0771
     42 N         140.0547  140.8755  166.7760 N.3     1  UNL1       -0.2685
     43 C         140.3503  139.6500  167.5888 C.3     1  UNL1        0.0899
     44 O         137.7478  142.9207  161.0101 O.3     1  UNL1       -0.4684
     45 C         138.6118  142.4340  159.8846 C.3     1  UNL1        0.2526
     46 O         138.3005  145.6424  162.1446 O.3     1  UNL1       -0.4684
     47 C         139.4149  146.5620  161.7418 C.3     1  UNL1        0.2526
@<TRIPOS>BOND
     1    23    24    1
     2    24    10    1
     3    10    11   ar
     4    11    12   ar
     5    12    13   ar
     6    13    14   ar
     7    14    15   ar
     8    15    16    1
     9    13    17    1
    10    17     9    1
    11     9     1    1
    12     1     2   ar
    13     2     3   ar
    14     3     4   ar
    15     4     5    1
    16     4     6   ar
    17     6    25    1
    18    25    26    1
    19    26    27   ar
    20    27    28   ar
    21    28    29   ar
    22    29    32    1
    23    33    32    1
    24    33    34    1
    25    34    35   ar
    26    35    36   ar
    27    36    44    1
    28    44    45    1
    29    36    37   ar
    30    37    46    1
    31    46    47    1
    32    37    38   ar
    33    38    39   ar
    34    39    40    1
    35    40    41    1
    36    41    42    1
    37    42    43    1
    38    29    30   ar
    39    30    31   ar
    40     6     7   ar
    41    17    18    1
    42    18    19    1
    43    18    20    1
    44    20    21    1
    45    15    10   ar
    46     7     1   ar
    47    21    12    1
    48    31    26   ar
    49    42    33    1
    50    39    34   ar
    51    16    22    1
    52     5     8    1
@<TRIPOS>MOLECULE
*****
 47 52 0 0 0
SMALL
GASTEIGER

@<TRIPOS>ATOM
      1 C         143.5536  141.7873  157.7675 C.ar    1  UNL1       -0.0173
      2 C         144.2491  141.5148  156.4666 C.ar    1  UNL1       -0.0009
      3 C         144.3151  140.1155  155.9303 C.ar    1  UNL1        0.0395
      4 C         143.6856  138.9888  156.6948 C.ar    1  UNL1        0.1683
      5 O         143.7517  137.5895  156.1584 O.3     1  UNL1       -0.5028
      6 C         142.9902  139.2613  157.9955 C.ar    1  UNL1        0.1784
      7 C         142.9242  140.6606  158.5319 C.ar    1  UNL1        0.0364
      8 H         144.1861  137.4192  155.3458 H       1  UNL1        0.2923
      9 C         143.4875  143.1866  158.3038 C.3     1  UNL1        0.0469
     10 C         143.8983  142.8202  163.6841 C.ar    1  UNL1        0.1718
     11 C         142.5322  143.3747  163.4079 C.ar    1  UNL1        0.0356
     12 C         142.0880  143.6050  161.9938 C.ar    1  UNL1       -0.0203
     13 C         143.0099  143.2807  160.8559 C.ar    1  UNL1       -0.0082
     14 C         144.3759  142.7262  161.1320 C.ar    1  UNL1        0.0365
     15 C         144.8201  142.4959  162.5461 C.ar    1  UNL1        0.1674
     16 O         146.1863  141.9414  162.8223 O.3     1  UNL1       -0.5029
     17 C         142.5657  143.5109  159.4418 C.3     1  UNL1        0.0843
     18 N         141.1996  144.0654  159.1656 N.3     1  UNL1       -0.2685
     19 C         140.7554  144.2956  157.7515 C.3     1  UNL1        0.0899
     20 C         140.2776  144.3897  160.3036 C.3     1  UNL1        0.0771
     21 C         140.7218  144.1595  161.7177 C.3     1  UNL1        0.0435
     22 H         146.7622  141.7388  162.1114 H       1  UNL1        0.2923
     23 C         144.9116  143.7232  165.8994 C.3     1  UNL1        0.2526
     24 O         144.3425  142.5900  165.0982 O.3     1  UNL1       -0.4684
     25 O         142.3608  138.1346  158.7599 O.3     1  UNL1       -0.4505
     26 C         141.5971  138.4174  160.0196 C.ar    1  UNL1        0.1454
     27 C         140.0996  138.3313  160.0241 C.ar    1  UNL1        0.0372
     28 C         139.3359  138.6141  161.2838 C.ar    1  UNL1       -0.0011
     29 C         140.0696  138.9829  162.5389 C.ar    1  UNL1       -0.0203
     30 C         141.5672  139.0690  162.5345 C.ar    1  UNL1       -0.0011
     31 C         142.3309  138.7862  161.2748 C.ar    1  UNL1        0.0372
     32 C         139.3059  139.2657  163.7986 C.3     1  UNL1        0.0468
     33 C         139.3885  140.6201  164.4378 C.3     1  UNL1        0.0843
     34 C         140.3713  140.8691  165.5433 C.ar    1  UNL1       -0.0081
     35 C         141.2714  139.7636  166.0097 C.ar    1  UNL1        0.0368
     36 C         142.2542  140.0126  167.1153 C.ar    1  UNL1        0.1721
     37 C         142.3368  141.3670  167.7544 C.ar    1  UNL1        0.1721
     38 C         141.4366  142.4725  167.2880 C.ar    1  UNL1        0.0356
     39 C         140.4539  142.2236  166.1824 C.ar    1  UNL1       -0.0203
     40 C         139.5537  143.3291  165.7161 C.3     1  UNL1        0.0435
     41 C         138.5710  143.0802  164.6105 C.3     1  UNL1        0.0771
     42 N         138.4884  141.7256  163.9714 N.3     1  UNL1       -0.2685
     43 C         137.5057  141.4767  162.8658 C.3     1  UNL1        0.0899
     44 O         143.1543  138.9070  167.5816 O.3     1  UNL1       -0.4684
     45 C         143.8629  138.0438  166.5802 C.3     1  UNL1        0.2526
     46 O         143.3195  141.6160  168.8599 O.3     1  UNL1       -0.4684
     47 C         142.9588  142.5315  169.9920 C.3     1  UNL1        0.2526
@<TRIPOS>BOND
     1    23    24    1
     2    24    10    1
     3    10    11   ar
     4    11    12   ar
     5    12    13   ar
     6    13    14   ar
     7    14    15   ar
     8    15    16    1
     9    13    17    1
    10    17     9    1
    11     9     1    1
    12     1     2   ar
    13     2     3   ar
    14     3     4   ar
    15     4     5    1
    16     4     6   ar
    17     6    25    1
    18    25    26    1
    19    26    27   ar
    20    27    28   ar
    21    28    29   ar
    22    29    32    1
    23    33    32    1
    24    33    34    1
    25    34    35   ar
    26    35    36   ar
    27    36    44    1
    28    44    45    1
    29    36    37   ar
    30    37    46    1
    31    46    47    1
    32    37    38   ar
    33    38    39   ar
    34    39    40    1
    35    40    41    1
    36    41    42    1
    37    42    43    1
    38    29    30   ar
    39    30    31   ar
    40     6     7   ar
    41    17    18    1
    42    18    19    1
    43    18    20    1
    44    20    21    1
    45    15    10   ar
    46     7     1   ar
    47    21    12    1
    48    31    26   ar
    49    42    33    1
    50    39    34   ar
    51    16    22    1
    52     5     8    1
@<TRIPOS>MOLECULE
*****
 47 52 0 0 0
SMALL
GASTEIGER

@<TRIPOS>ATOM
      1 C         140.1039  140.8642  167.4674 C.ar    1  UNL1       -0.0173
      2 C         140.1183  141.0504  168.9558 C.ar    1  UNL1       -0.0009
      3 C         141.2956  141.7020  169.6187 C.ar    1  UNL1        0.0395
      4 C         142.4584  142.1675  168.7932 C.ar    1  UNL1        0.1683
      5 O         143.6357  142.8191  169.4562 O.3     1  UNL1       -0.5028
      6 C         142.4439  141.9813  167.3049 C.ar    1  UNL1        0.1784
      7 C         141.2666  141.3297  166.6420 C.ar    1  UNL1        0.0364
      8 H         143.6447  142.9354  170.3859 H       1  UNL1        0.2923
      9 C         138.9266  140.2126  166.8045 C.3     1  UNL1        0.0469
     10 C         138.6450  144.0132  162.9670 C.ar    1  UNL1        0.1718
     11 C         138.6164  142.6957  162.2506 C.ar    1  UNL1        0.0356
     12 C         138.6797  141.4161  163.0309 C.ar    1  UNL1       -0.0203
     13 C         138.7715  141.4541  164.5276 C.ar    1  UNL1       -0.0082
     14 C         138.8001  142.7717  165.2440 C.ar    1  UNL1        0.0365
     15 C         138.7368  144.0512  164.4637 C.ar    1  UNL1        0.1674
     16 O         138.7653  145.3687  165.1802 O.3     1  UNL1       -0.5029
     17 C         138.8348  140.1746  165.3079 C.3     1  UNL1        0.0843
     18 N         138.8063  138.8571  164.5915 N.3     1  UNL1       -0.2685
     19 C         138.8695  137.5776  165.3717 C.3     1  UNL1        0.0899
     20 C         138.7144  138.8190  163.0947 C.3     1  UNL1        0.0771
     21 C         138.6512  140.0986  162.3144 C.3     1  UNL1        0.0435
     22 H         138.8227  145.3925  166.1151 H       1  UNL1        0.2923
     23 C         139.8364  146.0686  161.9155 C.3     1  UNL1        0.2526
     24 O         138.5817  145.2927  162.1868 O.3     1  UNL1       -0.4684
     25 O         143.6066  142.4468  166.4796 O.3     1  UNL1       -0.4505
     26 C         143.6028  142.2389  164.9940 C.ar    1  UNL1        0.1454
     27 C         142.5094  142.8327  164.1564 C.ar    1  UNL1        0.0372
     28 C         142.5056  142.6249  162.6709 C.ar    1  UNL1       -0.0011
     29 C         143.5953  141.8232  162.0230 C.ar    1  UNL1       -0.0203
     30 C         144.6888  141.2293  162.8606 C.ar    1  UNL1       -0.0011
     31 C         144.6926  141.4371  164.3462 C.ar    1  UNL1        0.0372
     32 C         143.5915  141.6153  160.5375 C.3     1  UNL1        0.0468
     33 C         142.5993  140.6792  159.9137 C.3     1  UNL1        0.0843
     34 C         141.3397  141.2190  159.3038 C.ar    1  UNL1       -0.0081
     35 C         141.0723  142.6949  159.3177 C.ar    1  UNL1        0.0368
     36 C         139.8127  143.2347  158.7078 C.ar    1  UNL1        0.1721
     37 C         138.8205  142.2986  158.0840 C.ar    1  UNL1        0.1721
     38 C         139.0878  140.8228  158.0701 C.ar    1  UNL1        0.0356
     39 C         140.3474  140.2830  158.6800 C.ar    1  UNL1       -0.0203
     40 C         140.6148  138.8070  158.6660 C.3     1  UNL1        0.0435
     41 C         141.8744  138.2672  159.2759 C.3     1  UNL1        0.0771
     42 N         142.8667  139.2033  159.8998 N.3     1  UNL1       -0.2685
     43 C         144.1263  138.6635  160.5097 C.3     1  UNL1        0.0899
     44 O         139.5454  144.7107  158.7217 O.3     1  UNL1       -0.4684
     45 C         140.5429  145.6592  158.1257 C.3     1  UNL1        0.2526
     46 O         137.5608  142.8384  157.4741 O.3     1  UNL1       -0.4684
     47 C         137.5614  143.3180  156.0528 C.3     1  UNL1        0.2526
@<TRIPOS>BOND
     1    23    24    1
     2    24    10    1
     3    10    11   ar
     4    11    12   ar
     5    12    13   ar
     6    13    14   ar
     7    14    15   ar
     8    15    16    1
     9    13    17    1
    10    17     9    1
    11     9     1    1
    12     1     2   ar
    13     2     3   ar
    14     3     4   ar
    15     4     5    1
    16     4     6   ar
    17     6    25    1
    18    25    26    1
    19    26    27   ar
    20    27    28   ar
    21    28    29   ar
    22    29    32    1
    23    33    32    1
    24    33    34    1
    25    34    35   ar
    26    35    36   ar
    27    36    44    1
    28    44    45    1
    29    36    37   ar
    30    37    46    1
    31    46    47    1
    32    37    38   ar
    33    38    39   ar
    34    39    40    1
    35    40    41    1
    36    41    42    1
    37    42    43    1
    38    29    30   ar
    39    30    31   ar
    40     6     7   ar
    41    17    18    1
    42    18    19    1
    43    18    20    1
    44    20    21    1
    45    15    10   ar
    46     7     1   ar
    47    21    12    1
    48    31    26   ar
    49    42    33    1
    50    39    34   ar
    51    16    22    1
    52     5     8    1
@<TRIPOS>MOLECULE
*****
 47 52 0 0 0
SMALL
GASTEIGER

@<TRIPOS>ATOM
      1 C         139.9490  139.4199  157.9240 C.ar    1  UNL1       -0.0173
      2 C         139.7259  138.2449  157.0186 C.ar    1  UNL1       -0.0009
      3 C         140.8627  137.3219  156.6937 C.ar    1  UNL1        0.0395
      4 C         142.2227  137.5738  157.2744 C.ar    1  UNL1        0.1683
      5 O         143.3596  136.6508  156.9495 O.3     1  UNL1       -0.5028
      6 C         142.4458  138.7487  158.1798 C.ar    1  UNL1        0.1784
      7 C         141.3089  139.6717  158.5046 C.ar    1  UNL1        0.0364
      8 H         143.2203  135.9169  156.3839 H       1  UNL1        0.2923
      9 C         138.8121  140.3429  158.2489 C.3     1  UNL1        0.0469
     10 C         138.4065  139.5517  163.5836 C.ar    1  UNL1        0.1718
     11 C         138.6549  141.0194  163.3984 C.ar    1  UNL1        0.0356
     12 C         138.8184  141.5840  162.0184 C.ar    1  UNL1       -0.0203
     13 C         138.7335  140.6811  160.8236 C.ar    1  UNL1       -0.0082
     14 C         138.4851  139.2135  161.0089 C.ar    1  UNL1        0.0365
     15 C         138.3216  138.6488  162.3889 C.ar    1  UNL1        0.1674
     16 O         138.0731  137.1811  162.5741 O.3     1  UNL1       -0.5029
     17 C         138.8970  141.2458  159.4436 C.3     1  UNL1        0.0843
     18 N         139.1454  142.7134  159.2584 N.3     1  UNL1       -0.2685
     19 C         139.3089  143.2781  157.8784 C.3     1  UNL1        0.0899
     20 C         139.2303  143.6164  160.4532 C.3     1  UNL1        0.0771
     21 C         139.0668  143.0517  161.8332 C.3     1  UNL1        0.0435
     22 H         138.0201  136.6171  161.8278 H       1  UNL1        0.2923
     23 C         138.9913  137.7493  165.3610 C.3     1  UNL1        0.2526
     24 O         138.2430  138.9871  164.9636 O.3     1  UNL1       -0.4684
     25 O         143.8057  139.0006  158.7603 O.3     1  UNL1       -0.4505
     26 C         143.9491  139.3427  160.2138 C.ar    1  UNL1        0.1454
     27 C         143.7766  138.2774  161.2556 C.ar    1  UNL1        0.0372
     28 C         143.9200  138.6195  162.7090 C.ar    1  UNL1       -0.0011
     29 C         144.2359  140.0269  163.1206 C.ar    1  UNL1       -0.0203
     30 C         144.4085  141.0922  162.0788 C.ar    1  UNL1       -0.0011
     31 C         144.2650  140.7501  160.6253 C.ar    1  UNL1        0.0372
     32 C         144.3793  140.3690  164.5740 C.3     1  UNL1        0.0468
     33 C         143.1771  140.3517  165.4707 C.3     1  UNL1        0.0843
     34 C         142.1891  141.4793  165.4223 C.ar    1  UNL1       -0.0081
     35 C         142.4034  142.6242  164.4772 C.ar    1  UNL1        0.0368
     36 C         141.4154  143.7519  164.4289 C.ar    1  UNL1        0.1721
     37 C         140.2131  143.7346  165.3256 C.ar    1  UNL1        0.1721
     38 C         139.9988  142.5897  166.2707 C.ar    1  UNL1        0.0356
     39 C         140.9868  141.4621  166.3191 C.ar    1  UNL1       -0.0203
     40 C         140.7725  140.3172  167.2643 C.3     1  UNL1        0.0435
     41 C         141.7604  139.1895  167.3126 C.3     1  UNL1        0.0771
     42 N         142.9628  139.2068  166.4158 N.3     1  UNL1       -0.2685
     43 C         143.9507  138.0792  166.4642 C.3     1  UNL1        0.0899
     44 O         141.6298  144.8968  163.4837 O.3     1  UNL1       -0.4684
     45 C         143.0037  145.1866  162.9561 C.3     1  UNL1        0.2526
     46 O         139.2252  144.8623  165.2772 O.3     1  UNL1       -0.4684
     47 C         137.7875  144.5863  164.9502 C.3     1  UNL1        0.2526
@<TRIPOS>BOND
     1    23    24    1
     2    24    10    1
     3    10    11   ar
     4    11    12   ar
     5    12    13   ar
     6    13    14   ar
     7    14    15   ar
     8    15    16    1
     9    13    17    1
    10    17     9    1
    11     9     1    1
    12     1     2   ar
    13     2     3   ar
    14     3     4   ar
    15     4     5    1
    16     4     6   ar
    17     6    25    1
    18    25    26    1
    19    26    27   ar
    20    27    28   ar
    21    28    29   ar
    22    29    32    1
    23    33    32    1
    24    33    34    1
    25    34    35   ar
    26    35    36   ar
    27    36    44    1
    28    44    45    1
    29    36    37   ar
    30    37    46    1
    31    46    47    1
    32    37    38   ar
    33    38    39   ar
    34    39    40    1
    35    40    41    1
    36    41    42    1
    37    42    43    1
    38    29    30   ar
    39    30    31   ar
    40     6     7   ar
    41    17    18    1
    42    18    19    1
    43    18    20    1
    44    20    21    1
    45    15    10   ar
    46     7     1   ar
    47    21    12    1
    48    31    26   ar
    49    42    33    1
    50    39    34   ar
    51    16    22    1
    52     5     8    1
@<TRIPOS>MOLECULE
*****
 47 52 0 0 0
SMALL
GASTEIGER

@<TRIPOS>ATOM
      1 C         139.6674  140.0230  166.5772 C.ar    1  UNL1       -0.0173
      2 C         139.6407  139.8940  168.0715 C.ar    1  UNL1       -0.0009
      3 C         140.8241  140.3309  168.8832 C.ar    1  UNL1        0.0395
      4 C         142.0341  140.8968  168.2006 C.ar    1  UNL1        0.1683
      5 O         143.2174  141.3336  169.0123 O.3     1  UNL1       -0.5028
      6 C         142.0607  141.0257  166.7064 C.ar    1  UNL1        0.1784
      7 C         140.8773  140.5889  165.8947 C.ar    1  UNL1        0.0364
      8 H         143.2008  141.2530  169.9457 H       1  UNL1        0.2923
      9 C         138.4840  139.5862  165.7655 C.3     1  UNL1        0.0469
     10 C         138.3243  144.0291  162.6857 C.ar    1  UNL1        0.1718
     11 C         138.3465  142.8665  161.7381 C.ar    1  UNL1        0.0356
     12 C         138.3921  141.4652  162.2711 C.ar    1  UNL1       -0.0203
     13 C         138.4153  141.2264  163.7518 C.ar    1  UNL1       -0.0082
     14 C         138.3930  142.3889  164.6994 C.ar    1  UNL1        0.0365
     15 C         138.3475  143.7902  164.1663 C.ar    1  UNL1        0.1674
     16 O         138.3252  144.9528  165.1140 O.3     1  UNL1       -0.5029
     17 C         138.4608  139.8250  164.2848 C.3     1  UNL1        0.0843
     18 N         138.4831  138.6625  163.3373 N.3     1  UNL1       -0.2685
     19 C         138.5286  137.2611  163.8703 C.3     1  UNL1        0.0899
     20 C         138.4598  138.9013  161.8565 C.3     1  UNL1        0.0771
     21 C         138.4143  140.3026  161.3235 C.3     1  UNL1        0.0435
     22 H         138.3397  144.8036  166.0389 H       1  UNL1        0.2923
     23 C         139.5356  146.2457  162.0783 C.3     1  UNL1        0.2526
     24 O         138.2788  145.4304  162.1526 O.3     1  UNL1       -0.4684
     25 O         143.2706  141.5915  166.0239 O.3     1  UNL1       -0.4505
     26 C         143.2228  141.9167  164.5604 C.ar    1  UNL1        0.1454
     27 C         144.1289  141.2009  163.6031 C.ar    1  UNL1        0.0372
     28 C         144.0811  141.5261  162.1395 C.ar    1  UNL1       -0.0011
     29 C         143.1272  142.5671  161.6333 C.ar    1  UNL1       -0.0203
     30 C         142.2210  143.2830  162.5906 C.ar    1  UNL1       -0.0011
     31 C         142.2688  142.9578  164.0542 C.ar    1  UNL1        0.0372
     32 C         143.0794  142.8923  160.1698 C.3     1  UNL1        0.0468
     33 C         141.7726  142.8507  159.4345 C.3     1  UNL1        0.0843
     34 C         141.2081  141.5367  158.9821 C.ar    1  UNL1       -0.0081
     35 C         141.9503  140.2643  159.2650 C.ar    1  UNL1        0.0368
     36 C         141.3858  138.9502  158.8126 C.ar    1  UNL1        0.1721
     37 C         140.0791  138.9086  158.0774 C.ar    1  UNL1        0.1721
     38 C         139.3368  140.1810  157.7945 C.ar    1  UNL1        0.0356
     39 C         139.9014  141.4950  158.2469 C.ar    1  UNL1       -0.0203
     40 C         139.1591  142.7675  157.9640 C.3     1  UNL1        0.0435
     41 C         139.7236  144.0815  158.4163 C.3     1  UNL1        0.0771
     42 N         141.0304  144.1231  159.1516 N.3     1  UNL1       -0.2685
     43 C         141.5950  145.4371  159.6040 C.3     1  UNL1        0.0899
     44 O         142.1281  137.6778  159.0956 O.3     1  UNL1       -0.4684
     45 C         143.0612  137.5985  160.2673 C.3     1  UNL1        0.2526
     46 O         139.5145  137.5946  157.6250 O.3     1  UNL1       -0.4684
     47 C         139.7398  137.1260  156.2180 C.3     1  UNL1        0.2526
@<TRIPOS>BOND
     1    23    24    1
     2    24    10    1
     3    10    11   ar
     4    11    12   ar
     5    12    13   ar
     6    13    14   ar
     7    14    15   ar
     8    15    16    1
     9    13    17    1
    10    17     9    1
    11     9     1    1
    12     1     2   ar
    13     2     3   ar
    14     3     4   ar
    15     4     5    1
    16     4     6   ar
    17     6    25    1
    18    25    26    1
    19    26    27   ar
    20    27    28   ar
    21    28    29   ar
    22    29    32    1
    23    33    32    1
    24    33    34    1
    25    34    35   ar
    26    35    36   ar
    27    36    44    1
    28    44    45    1
    29    36    37   ar
    30    37    46    1
    31    46    47    1
    32    37    38   ar
    33    38    39   ar
    34    39    40    1
    35    40    41    1
    36    41    42    1
    37    42    43    1
    38    29    30   ar
    39    30    31   ar
    40     6     7   ar
    41    17    18    1
    42    18    19    1
    43    18    20    1
    44    20    21    1
    45    15    10   ar
    46     7     1   ar
    47    21    12    1
    48    31    26   ar
    49    42    33    1
    50    39    34   ar
    51    16    22    1
    52     5     8    1
