@<TRIPOS>MOLECULE
*****
 26 29 0 0 0
SMALL
GASTEIGER

@<TRIPOS>ATOM
      1 C         139.9613  139.9352  167.9375 C.2     1  UNL1        0.2494
      2 O         138.6840  139.4710  168.5721 O.2     1  UNL1       -0.2699
      3 N         140.2536  139.5969  166.5057 N.am    1  UNL1       -0.2688
      4 C         141.5310  140.0611  165.8710 C.3     1  UNL1        0.1186
      5 C         141.8232  139.7227  164.4391 C.3     1  UNL1        0.1302
      6 N         140.8381  138.9202  163.6420 N.ar    1  UNL1       -0.2940
      7 C         140.8524  138.4372  162.2220 C.ar    1  UNL1        0.1917
      8 N         139.5838  137.6745  161.9790 N.ar    1  UNL1       -0.1268
      9 N         138.7856  137.6861  163.2489 N.ar    1  UNL1       -0.1316
     10 C         139.5607  138.4560  164.2767 C.ar    1  UNL1        0.1615
     11 C         139.2685  138.7943  165.7085 C.3     1  UNL1        0.1343
     12 C         137.9911  138.3301  166.3432 C.3     1  UNL1        0.0298
     13 C         141.6032  142.9483  169.9314 C.ar    1  UNL1        0.1389
     14 C         142.9167  142.3429  170.3289 C.ar    1  UNL1        0.0369
     15 C         143.2452  140.9349  169.9293 C.ar    1  UNL1        0.0033
     16 C         142.2600  140.1323  169.1321 C.ar    1  UNL1        0.0047
     17 C         140.9465  140.7378  168.7346 C.ar    1  UNL1        0.0566
     18 C         140.6180  142.1458  169.1342 C.ar    1  UNL1        0.0414
     19 C         139.8594  144.8472  170.2538 C.3     1  UNL1        0.2525
     20 O         141.2747  144.3564  170.3310 O.3     1  UNL1       -0.4714
     21 C         141.9436  138.6751  161.2207 C.ar    1  UNL1        0.1652
     22 N         141.7704  139.2585  159.8497 N.ar    1  UNL1       -0.2190
     23 C         143.1195  139.3154  159.1963 C.ar    1  UNL1        0.1481
     24 C         143.4105  139.8301  157.8179 C.3     1  UNL1        0.0744
     25 N         144.1264  138.7671  160.1636 N.ar    1  UNL1       -0.1929
     26 S         143.3997  138.3714  161.4147 S.2     1  UNL1        0.0369
@<TRIPOS>BOND
     1    19    20    1
     2    20    13    1
     3    13    14   ar
     4    14    15   ar
     5    15    16   ar
     6    16    17   ar
     7    17     1    1
     8     1     2    2
     9     1     3   am
    10     3     4    1
    11     4     5    1
    12     5     6    1
    13     6     7   ar
    14     7    21    1
    15    21    22   ar
    16    22    23   ar
    17    23    24    1
    18    23    25   ar
    19    25    26   ar
    20     7     8   ar
    21     8     9   ar
    22     9    10   ar
    23    10    11    1
    24    11    12    1
    25    17    18   ar
    26    18    13   ar
    27    11     3    1
    28    10     6   ar
    29    26    21   ar
@<TRIPOS>MOLECULE
*****
 26 29 0 0 0
SMALL
GASTEIGER

@<TRIPOS>ATOM
      1 C         139.9283  143.8293  164.1082 C.2     1  UNL1        0.2494
      2 O         139.2112  145.1189  164.3776 O.2     1  UNL1       -0.2699
      3 N         140.6752  143.6412  162.8211 N.am    1  UNL1       -0.2688
      4 C         141.3923  142.3516  162.5516 C.3     1  UNL1        0.1186
      5 C         142.1393  142.1635  161.2645 C.3     1  UNL1        0.1302
      6 N         142.1691  143.2650  160.2468 N.ar    1  UNL1       -0.2940
      7 C         142.8172  143.3681  158.8979 C.ar    1  UNL1        0.1917
      8 N         142.5006  144.7214  158.3337 N.ar    1  UNL1       -0.1268
      9 N         141.6569  145.4547  159.3339 N.ar    1  UNL1       -0.1316
     10 C         141.4520  144.5546  160.5162 C.ar    1  UNL1        0.1615
     11 C         140.7050  144.7428  161.8033 C.3     1  UNL1        0.1343
     12 C         139.9879  146.0324  162.0727 C.3     1  UNL1        0.0298
     13 C         138.9314  140.4683  165.9682 C.ar    1  UNL1        0.1389
     14 C         139.8388  140.5246  167.1612 C.ar    1  UNL1        0.0369
     15 C         140.7761  141.6825  167.3366 C.ar    1  UNL1        0.0033
     16 C         140.8059  142.7841  166.3189 C.ar    1  UNL1        0.0047
     17 C         139.8985  142.7278  165.1258 C.ar    1  UNL1        0.0566
     18 C         138.9612  141.5698  164.9505 C.ar    1  UNL1        0.0414
     19 C         137.6311  138.4543  166.9699 C.3     1  UNL1        0.2525
     20 O         137.9941  139.3103  165.7928 O.3     1  UNL1       -0.4714
     21 C         143.6378  142.3045  158.2305 C.ar    1  UNL1        0.1652
     22 N         144.6540  142.5237  157.1492 N.ar    1  UNL1       -0.2190
     23 C         145.2305  141.1896  156.7776 C.ar    1  UNL1        0.1481
     24 C         146.2823  140.9426  155.7372 C.3     1  UNL1        0.0744
     25 N         144.5705  140.1460  157.6293 N.ar    1  UNL1       -0.1929
     26 S         143.5861  140.8350  158.5272 S.2     1  UNL1        0.0369
@<TRIPOS>BOND
     1    19    20    1
     2    20    13    1
     3    13    14   ar
     4    14    15   ar
     5    15    16   ar
     6    16    17   ar
     7    17     1    1
     8     1     2    2
     9     1     3   am
    10     3     4    1
    11     4     5    1
    12     5     6    1
    13     6     7   ar
    14     7    21    1
    15    21    22   ar
    16    22    23   ar
    17    23    24    1
    18    23    25   ar
    19    25    26   ar
    20     7     8   ar
    21     8     9   ar
    22     9    10   ar
    23    10    11    1
    24    11    12    1
    25    17    18   ar
    26    18    13   ar
    27    11     3    1
    28    10     6   ar
    29    26    21   ar
@<TRIPOS>MOLECULE
*****
 26 29 0 0 0
SMALL
GASTEIGER

@<TRIPOS>ATOM
      1 C         139.9642  140.5627  167.3216 C.2     1  UNL1        0.2494
      2 O         139.0635  139.4608  167.7954 O.2     1  UNL1       -0.2699
      3 N         139.9018  141.0211  165.8948 N.am    1  UNL1       -0.2688
      4 C         140.8026  142.1230  165.4209 C.3     1  UNL1        0.1186
      5 C         140.7401  142.5815  163.9940 C.3     1  UNL1        0.1302
      6 N         139.7769  141.9381  163.0410 N.ar    1  UNL1       -0.2940
      7 C         139.4920  142.1770  161.5878 C.ar    1  UNL1        0.1917
      8 N         138.4153  141.2228  161.1635 N.ar    1  UNL1       -0.1268
      9 N         138.0346  140.3942  162.3545 N.ar    1  UNL1       -0.1316
     10 C         138.8761  140.8362  163.5149 C.ar    1  UNL1        0.1615
     11 C         138.9386  140.3777  164.9417 C.3     1  UNL1        0.1343
     12 C         138.0378  139.2759  165.4155 C.3     1  UNL1        0.0298
     13 C         141.5578  143.1725  169.8513 C.ar    1  UNL1        0.1389
     14 C         142.8538  142.4930  170.1806 C.ar    1  UNL1        0.0369
     15 C         143.1867  141.1700  169.5570 C.ar    1  UNL1        0.0033
     16 C         142.2235  140.5265  168.6040 C.ar    1  UNL1        0.0047
     17 C         140.9274  141.2061  168.2746 C.ar    1  UNL1        0.0566
     18 C         140.5946  142.5291  168.8983 C.ar    1  UNL1        0.0414
     19 C         139.8450  145.0659  170.3325 C.3     1  UNL1        0.2525
     20 O         141.2250  144.4955  170.4749 O.3     1  UNL1       -0.4714
     21 C         140.1657  143.1920  160.7126 C.ar    1  UNL1        0.1652
     22 N         139.4963  144.0472  159.6780 N.ar    1  UNL1       -0.2190
     23 C         140.5440  144.9137  159.0443 C.ar    1  UNL1        0.1481
     24 C         140.3150  145.9227  157.9584 C.3     1  UNL1        0.0744
     25 N         141.8610  144.5939  159.6873 N.ar    1  UNL1       -0.1929
     26 S         141.6272  143.5298  160.7184 S.2     1  UNL1        0.0369
@<TRIPOS>BOND
     1    19    20    1
     2    20    13    1
     3    13    14   ar
     4    14    15   ar
     5    15    16   ar
     6    16    17   ar
     7    17     1    1
     8     1     2    2
     9     1     3   am
    10     3     4    1
    11     4     5    1
    12     5     6    1
    13     6     7   ar
    14     7    21    1
    15    21    22   ar
    16    22    23   ar
    17    23    24    1
    18    23    25   ar
    19    25    26   ar
    20     7     8   ar
    21     8     9   ar
    22     9    10   ar
    23    10    11    1
    24    11    12    1
    25    17    18   ar
    26    18    13   ar
    27    11     3    1
    28    10     6   ar
    29    26    21   ar
@<TRIPOS>MOLECULE
*****
 26 29 0 0 0
SMALL
GASTEIGER

@<TRIPOS>ATOM
      1 C         140.0846  141.9457  164.6871 C.2     1  UNL1        0.2494
      2 O         139.5096  142.5672  165.9253 O.2     1  UNL1       -0.2699
      3 N         140.1520  142.7352  163.4136 N.am    1  UNL1       -0.2688
      4 C         140.7270  142.1138  162.1753 C.3     1  UNL1        0.1186
      5 C         140.7943  142.9034  160.9017 C.3     1  UNL1        0.1302
      6 N         140.2867  144.3144  160.8664 N.ar    1  UNL1       -0.2940
      7 C         140.2226  145.3308  159.7650 C.ar    1  UNL1        0.1917
      8 N         139.6080  146.5804  160.3225 N.ar    1  UNL1       -0.1268
      9 N         139.2923  146.3363  161.7684 N.ar    1  UNL1       -0.1316
     10 C         139.7117  144.9359  162.1046 C.ar    1  UNL1        0.1615
     11 C         139.6443  144.1463  163.3781 C.3     1  UNL1        0.1343
     12 C         139.0693  144.7678  164.6163 C.3     1  UNL1        0.0298
     13 C         142.5594  138.8570  164.9789 C.ar    1  UNL1        0.1389
     14 C         141.6076  137.7126  164.7932 C.ar    1  UNL1        0.0369
     15 C         140.1481  137.9792  164.5721 C.ar    1  UNL1        0.0033
     16 C         139.6404  139.3903  164.5368 C.ar    1  UNL1        0.0047
     17 C         140.5922  140.5347  164.7225 C.ar    1  UNL1        0.0566
     18 C         142.0517  140.2680  164.9436 C.ar    1  UNL1        0.0414
     19 C         145.0477  139.3643  164.4305 C.3     1  UNL1        0.2525
     20 O         144.0189  138.5903  165.2000 O.3     1  UNL1       -0.4714
     21 C         140.6910  145.1323  158.3539 C.ar    1  UNL1        0.1652
     22 N         140.0350  144.2646  157.3210 N.ar    1  UNL1       -0.2190
     23 C         140.8362  144.3627  156.0566 C.ar    1  UNL1        0.1481
     24 C         140.5385  143.6566  154.7672 C.3     1  UNL1        0.0744
     25 N         141.9872  145.2912  156.3081 N.ar    1  UNL1       -0.1929
     26 S         141.8974  145.7668  157.7279 S.2     1  UNL1        0.0369
@<TRIPOS>BOND
     1    19    20    1
     2    20    13    1
     3    13    14   ar
     4    14    15   ar
     5    15    16   ar
     6    16    17   ar
     7    17     1    1
     8     1     2    2
     9     1     3   am
    10     3     4    1
    11     4     5    1
    12     5     6    1
    13     6     7   ar
    14     7    21    1
    15    21    22   ar
    16    22    23   ar
    17    23    24    1
    18    23    25   ar
    19    25    26   ar
    20     7     8   ar
    21     8     9   ar
    22     9    10   ar
    23    10    11    1
    24    11    12    1
    25    17    18   ar
    26    18    13   ar
    27    11     3    1
    28    10     6   ar
    29    26    21   ar
@<TRIPOS>MOLECULE
*****
 26 29 0 0 0
SMALL
GASTEIGER

@<TRIPOS>ATOM
      1 C         141.5534  138.4450  162.9426 C.2     1  UNL1        0.2494
      2 O         142.9200  138.1163  163.4663 O.2     1  UNL1       -0.2699
      3 N         141.2931  138.4322  161.4655 N.am    1  UNL1       -0.2688
      4 C         139.9265  138.7609  160.9418 C.3     1  UNL1        0.1186
      5 C         139.6663  138.7480  159.4645 C.3     1  UNL1        0.1302
      6 N         140.7727  138.4064  158.5110 N.ar    1  UNL1       -0.2940
      7 C         140.8150  138.3133  157.0145 C.ar    1  UNL1        0.1917
      8 N         142.2078  137.9271  156.6133 N.ar    1  UNL1       -0.1268
      9 N         143.0262  137.7815  157.8619 N.ar    1  UNL1       -0.1316
     10 C         142.1393  138.0777  159.0347 C.ar    1  UNL1        0.1615
     11 C         142.3996  138.0906  160.5119 C.3     1  UNL1        0.1343
     12 C         143.7662  137.7619  161.0356 C.3     1  UNL1        0.0298
     13 C         138.9774  140.5630  165.0941 C.ar    1  UNL1        0.1389
     14 C         138.2341  139.4699  165.8031 C.ar    1  UNL1        0.0369
     15 C         138.5972  138.0352  165.5586 C.ar    1  UNL1        0.0033
     16 C         139.7036  137.6935  164.6051 C.ar    1  UNL1        0.0047
     17 C         140.4470  138.7866  163.8961 C.ar    1  UNL1        0.0566
     18 C         140.0838  140.2214  164.1407 C.ar    1  UNL1        0.0414
     19 C         137.8079  142.7509  164.3227 C.3     1  UNL1        0.2525
     20 O         138.6143  141.9977  165.3387 O.3     1  UNL1       -0.4714
     21 C         139.6662  138.5627  156.0828 C.ar    1  UNL1        0.1652
     22 N         138.7821  137.5155  155.4732 N.ar    1  UNL1       -0.2190
     23 C         137.7693  138.2087  154.6107 C.ar    1  UNL1        0.1481
     24 C         136.6881  137.5432  153.8120 C.3     1  UNL1        0.0744
     25 N         138.0276  139.6843  154.6874 N.ar    1  UNL1       -0.1929
     26 S         139.1999  139.9031  155.5972 S.2     1  UNL1        0.0369
@<TRIPOS>BOND
     1    19    20    1
     2    20    13    1
     3    13    14   ar
     4    14    15   ar
     5    15    16   ar
     6    16    17   ar
     7    17     1    1
     8     1     2    2
     9     1     3   am
    10     3     4    1
    11     4     5    1
    12     5     6    1
    13     6     7   ar
    14     7    21    1
    15    21    22   ar
    16    22    23   ar
    17    23    24    1
    18    23    25   ar
    19    25    26   ar
    20     7     8   ar
    21     8     9   ar
    22     9    10   ar
    23    10    11    1
    24    11    12    1
    25    17    18   ar
    26    18    13   ar
    27    11     3    1
    28    10     6   ar
    29    26    21   ar
@<TRIPOS>MOLECULE
*****
 26 29 0 0 0
SMALL
GASTEIGER

@<TRIPOS>ATOM
      1 C         139.9173  138.9611  165.3447 C.2     1  UNL1        0.2494
      2 O         139.2916  137.5984  165.3854 O.2     1  UNL1       -0.2699
      3 N         139.9315  139.7419  164.0640 N.am    1  UNL1       -0.2688
      4 C         140.5572  141.1045  164.0233 C.3     1  UNL1        0.1186
      5 C         140.5714  141.8853  162.7426 C.3     1  UNL1        0.1302
      6 N         139.9599  141.3035  161.5026 N.ar    1  UNL1       -0.2940
      7 C         139.8253  141.8337  160.1060 C.ar    1  UNL1        0.1917
      8 N         139.1164  140.7989  159.2835 N.ar    1  UNL1       -0.1268
      9 N         138.8129  139.6290  160.1718 N.ar    1  UNL1       -0.1316
     10 C         139.3342  139.9408  161.5434 C.ar    1  UNL1        0.1615
     11 C         139.3200  139.1600  162.8240 C.3     1  UNL1        0.1343
     12 C         138.6943  137.7973  162.8647 C.3     1  UNL1        0.0298
     13 C         140.2752  140.8270  168.8290 C.ar    1  UNL1        0.1389
     14 C         141.7517  140.7067  169.0646 C.ar    1  UNL1        0.0369
     15 C         142.6167  140.0047  168.0602 C.ar    1  UNL1        0.0033
     16 C         142.0052  139.4227  166.8202 C.ar    1  UNL1        0.0047
     17 C         140.5287  139.5429  166.5846 C.ar    1  UNL1        0.0566
     18 C         139.6637  140.2451  167.5890 C.ar    1  UNL1        0.0414
     19 C         139.8928  142.7894  170.4882 C.3     1  UNL1        0.2525
     20 O         139.4102  141.5291  169.8334 O.3     1  UNL1       -0.4714
     21 C         140.3139  143.1652  159.6175 C.ar    1  UNL1        0.1652
     22 N         139.7158  143.9682  158.5007 N.ar    1  UNL1       -0.2190
     23 C         140.5186  145.2268  158.3531 C.ar    1  UNL1        0.1481
     24 C         140.2707  146.3188  157.3552 C.3     1  UNL1        0.0744
     25 N         141.6128  145.2015  159.3789 N.ar    1  UNL1       -0.1929
     26 S         141.4863  143.9274  160.1603 S.2     1  UNL1        0.0369
@<TRIPOS>BOND
     1    19    20    1
     2    20    13    1
     3    13    14   ar
     4    14    15   ar
     5    15    16   ar
     6    16    17   ar
     7    17     1    1
     8     1     2    2
     9     1     3   am
    10     3     4    1
    11     4     5    1
    12     5     6    1
    13     6     7   ar
    14     7    21    1
    15    21    22   ar
    16    22    23   ar
    17    23    24    1
    18    23    25   ar
    19    25    26   ar
    20     7     8   ar
    21     8     9   ar
    22     9    10   ar
    23    10    11    1
    24    11    12    1
    25    17    18   ar
    26    18    13   ar
    27    11     3    1
    28    10     6   ar
    29    26    21   ar
@<TRIPOS>MOLECULE
*****
 26 29 0 0 0
SMALL
GASTEIGER

@<TRIPOS>ATOM
      1 C         142.8504  142.9120  165.1276 C.2     1  UNL1        0.2494
      2 O         144.0518  143.7849  165.3387 O.2     1  UNL1       -0.2699
      3 N         142.2688  142.7559  163.7538 N.am    1  UNL1       -0.2688
      4 C         141.0674  141.8830  163.5427 C.3     1  UNL1        0.1186
      5 C         140.4858  141.7269  162.1688 C.3     1  UNL1        0.1302
      6 N         141.1057  142.4437  161.0061 N.ar    1  UNL1       -0.2940
      7 C         140.7555  142.4818  159.5481 C.ar    1  UNL1        0.1917
      8 N         141.7405  143.3783  158.8580 N.ar    1  UNL1       -0.1268
      9 N         142.6995  143.8942  159.8896 N.ar    1  UNL1       -0.1316
     10 C         142.3072  143.3166  161.2172 C.ar    1  UNL1        0.1615
     11 C         142.8887  143.4727  162.5910 C.3     1  UNL1        0.1343
     12 C         144.0902  144.3456  162.8021 C.3     1  UNL1        0.0298
     13 C         142.2664  140.2513  168.0137 C.ar    1  UNL1        0.1389
     14 C         140.9907  140.7615  168.6157 C.ar    1  UNL1        0.0369
     15 C         140.3350  141.9885  168.0551 C.ar    1  UNL1        0.0033
     16 C         140.9549  142.7054  166.8923 C.ar    1  UNL1        0.0047
     17 C         142.2305  142.1952  166.2903 C.ar    1  UNL1        0.0566
     18 C         142.8862  140.9681  166.8510 C.ar    1  UNL1        0.0414
     19 C         142.6614  138.6169  169.9943 C.3     1  UNL1        0.2525
     20 O         142.9221  139.0242  168.5744 O.3     1  UNL1       -0.4714
     21 C         139.6197  141.7517  158.8947 C.ar    1  UNL1        0.1652
     22 N         138.6486  142.3322  157.9099 N.ar    1  UNL1       -0.2190
     23 C         137.6843  141.2520  157.5181 C.ar    1  UNL1        0.1481
     24 C         136.5449  141.3949  156.5531 C.3     1  UNL1        0.0744
     25 N         138.0595  140.0040  158.2608 N.ar    1  UNL1       -0.1929
     26 S         139.2557  140.3127  159.1116 S.2     1  UNL1        0.0369
@<TRIPOS>BOND
     1    19    20    1
     2    20    13    1
     3    13    14   ar
     4    14    15   ar
     5    15    16   ar
     6    16    17   ar
     7    17     1    1
     8     1     2    2
     9     1     3   am
    10     3     4    1
    11     4     5    1
    12     5     6    1
    13     6     7   ar
    14     7    21    1
    15    21    22   ar
    16    22    23   ar
    17    23    24    1
    18    23    25   ar
    19    25    26   ar
    20     7     8   ar
    21     8     9   ar
    22     9    10   ar
    23    10    11    1
    24    11    12    1
    25    17    18   ar
    26    18    13   ar
    27    11     3    1
    28    10     6   ar
    29    26    21   ar
@<TRIPOS>MOLECULE
*****
 26 29 0 0 0
SMALL
GASTEIGER

@<TRIPOS>ATOM
      1 C         140.0996  142.9067  164.9176 C.2     1  UNL1        0.2494
      2 O         139.5397  144.2772  165.1589 O.2     1  UNL1       -0.2699
      3 N         140.4086  142.4581  163.5201 N.am    1  UNL1       -0.2688
      4 C         140.9684  141.0876  163.2788 C.3     1  UNL1        0.1186
      5 C         141.2775  140.6390  161.8811 C.3     1  UNL1        0.1302
      6 N         141.0267  141.5609  160.7249 N.ar    1  UNL1       -0.2940
      7 C         141.2316  141.3974  159.2479 C.ar    1  UNL1        0.1917
      8 N         140.7985  142.6668  158.5764 N.ar    1  UNL1       -0.1268
      9 N         140.3258  143.6149  159.6383 N.ar    1  UNL1       -0.1316
     10 C         140.4668  142.9315  160.9661 C.ar    1  UNL1        0.1615
     11 C         140.1578  143.3800  162.3637 C.3     1  UNL1        0.1343
     12 C         139.5979  144.7506  162.6049 C.3     1  UNL1        0.0298
     13 C         139.5449  140.0851  167.6528 C.ar    1  UNL1        0.1389
     14 C         140.8520  140.1408  168.3866 C.ar    1  UNL1        0.0369
     15 C         141.9083  141.1183  167.9640 C.ar    1  UNL1        0.0033
     16 C         141.6575  142.0404  166.8077 C.ar    1  UNL1        0.0047
     17 C         140.3504  141.9847  166.0739 C.ar    1  UNL1        0.0566
     18 C         139.2941  141.0071  166.4965 C.ar    1  UNL1        0.0414
     19 C         137.6397  138.4275  167.0425 C.3     1  UNL1        0.2525
     20 O         138.4886  139.1075  168.0754 O.3     1  UNL1       -0.4714
     21 C         141.7745  140.1783  158.5629 C.ar    1  UNL1        0.1652
     22 N         140.9709  139.1552  157.8162 N.ar    1  UNL1       -0.2190
     23 C         141.9160  138.1129  157.2960 C.ar    1  UNL1        0.1481
     24 C         141.5396  136.9040  156.4919 C.3     1  UNL1        0.0744
     25 N         143.3037  138.4920  157.7213 N.ar    1  UNL1       -0.1929
     26 S         143.2162  139.7685  158.5042 S.2     1  UNL1        0.0369
@<TRIPOS>BOND
     1    19    20    1
     2    20    13    1
     3    13    14   ar
     4    14    15   ar
     5    15    16   ar
     6    16    17   ar
     7    17     1    1
     8     1     2    2
     9     1     3   am
    10     3     4    1
    11     4     5    1
    12     5     6    1
    13     6     7   ar
    14     7    21    1
    15    21    22   ar
    16    22    23   ar
    17    23    24    1
    18    23    25   ar
    19    25    26   ar
    20     7     8   ar
    21     8     9   ar
    22     9    10   ar
    23    10    11    1
    24    11    12    1
    25    17    18   ar
    26    18    13   ar
    27    11     3    1
    28    10     6   ar
    29    26    21   ar
@<TRIPOS>MOLECULE
*****
 26 29 0 0 0
SMALL
GASTEIGER

@<TRIPOS>ATOM
      1 C         143.7241  138.3964  156.2157 C.2     1  UNL1        0.2494
      2 O         145.0856  138.6368  155.6338 O.2     1  UNL1       -0.2699
      3 N         143.0948  139.4291  157.1030 N.am    1  UNL1       -0.2688
      4 C         141.7333  139.1888  157.6849 C.3     1  UNL1        0.1186
      5 C         141.1039  140.2216  158.5723 C.3     1  UNL1        0.1302
      6 N         141.8360  141.4946  158.8777 N.ar    1  UNL1       -0.2940
      7 C         141.4717  142.6865  159.7124 C.ar    1  UNL1        0.1917
      8 N         142.6080  143.6634  159.6464 N.ar    1  UNL1       -0.1268
      9 N         143.6746  143.0754  158.7709 N.ar    1  UNL1       -0.1316
     10 C         143.1975  141.7350  158.2957 C.ar    1  UNL1        0.1615
     11 C         143.8269  140.7023  157.4084 C.3     1  UNL1        0.1343
     12 C         145.1883  140.9426  156.8265 C.3     1  UNL1        0.0298
     13 C         142.5301  134.6169  156.4147 C.ar    1  UNL1        0.1389
     14 C         141.5278  134.5772  155.2995 C.ar    1  UNL1        0.0369
     15 C         141.2576  135.8105  154.4896 C.ar    1  UNL1        0.0033
     16 C         141.9897  137.0836  154.7950 C.ar    1  UNL1        0.0047
     17 C         142.9920  137.1234  155.9103 C.ar    1  UNL1        0.0566
     18 C         143.2622  135.8900  156.7202 C.ar    1  UNL1        0.0414
     19 C         144.2088  133.0206  157.5912 C.3     1  UNL1        0.2525
     20 O         142.8003  133.3835  157.2246 O.3     1  UNL1       -0.4714
     21 C         140.1952  142.8692  160.4786 C.ar    1  UNL1        0.1652
     22 N         140.0811  143.2836  161.9157 N.ar    1  UNL1       -0.2190
     23 C         138.6240  143.3402  162.2676 C.ar    1  UNL1        0.1481
     24 C         138.0535  143.7111  163.6042 C.3     1  UNL1        0.0744
     25 N         137.8376  142.9607  161.0478 N.ar    1  UNL1       -0.1929
     26 S         138.8087  142.6696  159.9422 S.2     1  UNL1        0.0369
@<TRIPOS>BOND
     1    19    20    1
     2    20    13    1
     3    13    14   ar
     4    14    15   ar
     5    15    16   ar
     6    16    17   ar
     7    17     1    1
     8     1     2    2
     9     1     3   am
    10     3     4    1
    11     4     5    1
    12     5     6    1
    13     6     7   ar
    14     7    21    1
    15    21    22   ar
    16    22    23   ar
    17    23    24    1
    18    23    25   ar
    19    25    26   ar
    20     7     8   ar
    21     8     9   ar
    22     9    10   ar
    23    10    11    1
    24    11    12    1
    25    17    18   ar
    26    18    13   ar
    27    11     3    1
    28    10     6   ar
    29    26    21   ar
