@<TRIPOS>MOLECULE
*****
 41 45 0 0 0
SMALL
GASTEIGER

@<TRIPOS>ATOM
      1 N         142.0324  143.7736  159.8166 N.3     1  UNL1       -0.1520
      2 C         141.7750  144.2505  161.2153 C.3     1  UNL1        0.1173
      3 C         142.6980  143.8474  162.3269 C.3     1  UNL1        0.1126
      4 N         143.8783  142.9675  162.0398 N.am    1  UNL1       -0.2766
      5 C         144.8013  142.5644  163.1514 C.2     1  UNL1        0.2256
      6 O         145.9817  141.6845  162.8644 O.2     1  UNL1       -0.2749
      7 C         144.1357  142.4906  160.6412 C.3     1  UNL1        0.1126
      8 C         143.2127  142.8937  159.5296 C.3     1  UNL1        0.1173
      9 S         141.1094  144.1767  158.7050 S.O2    1  UNL1        0.0634
     10 O         140.5319  142.7925  158.6827 O.2     1  UNL1       -0.1528
     11 O         141.6870  145.5609  158.7274 O.2     1  UNL1       -0.1528
     12 C         139.2841  146.3900  155.9629 C.ar    1  UNL1        0.0370
     13 C         138.3405  145.3859  155.3703 C.ar    1  UNL1        0.0070
     14 C         138.3198  143.9788  155.8892 C.ar    1  UNL1        0.0728
     15 C         139.2428  143.5757  157.0008 C.ar    1  UNL1        0.0238
     16 C         140.1864  144.5798  157.5934 C.ar    1  UNL1        0.1222
     17 C         140.2071  145.9870  157.0745 C.ar    1  UNL1        0.0229
     18 C         138.5232  151.5980  155.5393 C.3     1  UNL1        0.0736
     19 C         138.9551  150.1911  155.2492 C.ar    1  UNL1        0.1404
     20 N         139.7184  149.7344  154.0414 N.ar    1  UNL1       -0.1336
     21 N         139.9346  148.2550  154.1617 N.ar    1  UNL1       -0.1293
     22 C         139.3048  147.7973  155.4439 C.ar    1  UNL1        0.1629
     23 N         138.6995  148.9939  156.1160 N.ar    1  UNL1       -0.3246
     24 H         138.2188  148.9935  156.9752 H       1  UNL1        0.1686
     25 C         137.3761  142.9746  155.2966 C.3     1  UNL1        0.4186
     26 F         136.4325  141.9705  154.7040 F       1  UNL1       -0.1659
     27 F         136.4913  144.0878  154.8193 F       1  UNL1       -0.1659
     28 F         138.2609  141.8613  155.7739 F       1  UNL1       -0.1659
     29 C         144.5439  143.0413  164.5501 C.3     1  UNL1        0.0811
     30 C         144.8851  143.9443  165.6981 C.3     1  UNL1        0.0142
     31 C         143.7569  142.9641  165.8247 C.3     1  UNL1        0.0314
     32 C         142.6510  142.3535  166.6337 C.ar    1  UNL1       -0.0220
     33 C         141.3424  142.0178  165.9821 C.ar    1  UNL1       -0.0043
     34 C         140.2366  141.4073  166.7910 C.ar    1  UNL1        0.0035
     35 C         140.4394  141.1325  168.2517 C.ar    1  UNL1        0.0714
     36 C         141.7481  141.4682  168.9033 C.ar    1  UNL1        0.0035
     37 C         142.8539  142.0788  168.0943 C.ar    1  UNL1       -0.0043
     38 C         139.3336  140.5220  169.0606 C.3     1  UNL1        0.4186
     39 F         138.2278  139.9115  169.8695 F       1  UNL1       -0.1659
     40 F         139.5494  141.5499  170.1314 F       1  UNL1       -0.1659
     41 F         139.1177  139.4941  167.9897 F       1  UNL1       -0.1659
@<TRIPOS>BOND
     1    18    19    1
     2    19    20   ar
     3    20    21   ar
     4    21    22   ar
     5    22    12    1
     6    12    13   ar
     7    13    14   ar
     8    14    25    1
     9    25    26    1
    10    25    27    1
    11    25    28    1
    12    14    15   ar
    13    15    16   ar
    14    16     9    1
    15     9    10    2
    16     9    11    2
    17     9     1    1
    18     1     2    1
    19     2     3    1
    20     3     4    1
    21     4     5   am
    22     5     6    2
    23    29     5    1
    24    29    30    1
    25    30    31    1
    26    31    32    1
    27    32    33   ar
    28    33    34   ar
    29    34    35   ar
    30    35    38    1
    31    38    39    1
    32    38    40    1
    33    38    41    1
    34    35    36   ar
    35    36    37   ar
    36     4     7    1
    37     7     8    1
    38    16    17   ar
    39    22    23   ar
    40    23    19   ar
    41    17    12   ar
    42     8     1    1
    43    31    29    1
    44    37    32   ar
    45    23    24    1
@<TRIPOS>MOLECULE
*****
 41 45 0 0 0
SMALL
GASTEIGER

@<TRIPOS>ATOM
      1 N         141.9562  143.9294  159.7717 N.3     1  UNL1       -0.1520
      2 C         141.7199  144.3884  161.1800 C.3     1  UNL1        0.1173
      3 C         142.6399  143.9436  162.2781 C.3     1  UNL1        0.1126
      4 N         143.7961  143.0399  161.9679 N.am    1  UNL1       -0.2766
      5 C         144.7161  142.5951  163.0660 C.2     1  UNL1        0.2256
      6 O         145.8723  141.6913  162.7557 O.2     1  UNL1       -0.2749
      7 C         144.0324  142.5809  160.5595 C.3     1  UNL1        0.1126
      8 C         143.1124  143.0257  159.4614 C.3     1  UNL1        0.1173
      9 S         141.0362  144.3742  158.6736 S.O2    1  UNL1        0.0634
     10 O         139.9812  143.4341  159.1766 O.2     1  UNL1       -0.1528
     11 O         142.0912  145.3144  158.1705 O.2     1  UNL1       -0.1528
     12 C         138.2687  144.2782  155.8308 C.ar    1  UNL1        0.0370
     13 C         138.2763  145.7086  155.3793 C.ar    1  UNL1        0.0070
     14 C         139.2039  146.6942  156.0259 C.ar    1  UNL1        0.0728
     15 C         140.1238  146.2494  157.1240 C.ar    1  UNL1        0.0238
     16 C         140.1163  144.8190  157.5755 C.ar    1  UNL1        0.1222
     17 C         139.1887  143.8334  156.9289 C.ar    1  UNL1        0.0229
     18 C         134.2306  140.9778  155.0047 C.3     1  UNL1        0.0736
     19 C         135.4851  141.7755  154.8044 C.ar    1  UNL1        0.1404
     20 N         136.3426  141.7760  153.5736 N.ar    1  UNL1       -0.1336
     21 N         137.4896  142.7136  153.8083 N.ar    1  UNL1       -0.1293
     22 C         137.3411  143.2925  155.1841 C.ar    1  UNL1        0.1629
     23 N         136.1022  142.7128  155.7997 N.ar    1  UNL1       -0.3246
     24 H         135.7551  142.9124  156.6991 H       1  UNL1        0.1686
     25 C         139.2115  148.1247  155.5745 C.3     1  UNL1        0.4186
     26 F         139.2191  149.5551  155.1230 F       1  UNL1       -0.1659
     27 F         139.7475  147.7004  154.2393 F       1  UNL1       -0.1659
     28 F         138.6755  148.5490  156.9096 F       1  UNL1       -0.1659
     29 C         144.4798  143.0540  164.4743 C.3     1  UNL1        0.0811
     30 C         144.8418  143.9386  165.6303 C.3     1  UNL1        0.0142
     31 C         143.7085  142.9643  165.7577 C.3     1  UNL1        0.0314
     32 C         142.6088  142.3500  166.5722 C.ar    1  UNL1       -0.0220
     33 C         142.8075  142.1080  168.0391 C.ar    1  UNL1       -0.0043
     34 C         141.7079  141.4937  168.8536 C.ar    1  UNL1        0.0035
     35 C         140.4095  141.1215  168.2012 C.ar    1  UNL1        0.0714
     36 C         140.2107  141.3635  166.7343 C.ar    1  UNL1        0.0035
     37 C         141.3104  141.9778  165.9198 C.ar    1  UNL1       -0.0043
     38 C         139.3098  140.5072  169.0157 C.3     1  UNL1        0.4186
     39 F         138.2102  139.8930  169.8302 F       1  UNL1       -0.1659
     40 F         139.5575  141.5082  170.1050 F       1  UNL1       -0.1659
     41 F         139.0621  139.5062  167.9264 F       1  UNL1       -0.1659
@<TRIPOS>BOND
     1    18    19    1
     2    19    20   ar
     3    20    21   ar
     4    21    22   ar
     5    22    12    1
     6    12    13   ar
     7    13    14   ar
     8    14    25    1
     9    25    26    1
    10    25    27    1
    11    25    28    1
    12    14    15   ar
    13    15    16   ar
    14    16     9    1
    15     9    10    2
    16     9    11    2
    17     9     1    1
    18     1     2    1
    19     2     3    1
    20     3     4    1
    21     4     5   am
    22     5     6    2
    23    29     5    1
    24    29    30    1
    25    30    31    1
    26    31    32    1
    27    32    33   ar
    28    33    34   ar
    29    34    35   ar
    30    35    38    1
    31    38    39    1
    32    38    40    1
    33    38    41    1
    34    35    36   ar
    35    36    37   ar
    36     4     7    1
    37     7     8    1
    38    16    17   ar
    39    22    23   ar
    40    23    19   ar
    41    17    12   ar
    42     8     1    1
    43    31    29    1
    44    37    32   ar
    45    23    24    1
@<TRIPOS>MOLECULE
*****
 41 45 0 0 0
SMALL
GASTEIGER

@<TRIPOS>ATOM
      1 N         140.8592  138.8748  159.9322 N.3     1  UNL1       -0.1520
      2 C         141.1117  138.3334  161.3081 C.3     1  UNL1        0.1173
      3 C         140.2550  138.7760  162.4571 C.3     1  UNL1        0.1126
      4 N         139.1459  139.7600  162.2302 N.am    1  UNL1       -0.2766
      5 C         138.2893  140.2026  163.3793 C.2     1  UNL1        0.2256
      6 O         137.1801  141.1866  163.1524 O.2     1  UNL1       -0.2749
      7 C         138.8934  140.3014  160.8543 C.3     1  UNL1        0.1126
      8 C         139.7500  139.8588  159.7053 C.3     1  UNL1        0.1173
      9 S         141.7158  138.4322  158.7831 S.O2    1  UNL1        0.0634
     10 O         142.9469  138.7673  159.5719 O.2     1  UNL1       -0.1528
     11 O         140.4847  138.0971  157.9944 O.2     1  UNL1       -0.1528
     12 C         143.5201  136.0914  156.1346 C.ar    1  UNL1        0.0370
     13 C         144.2857  137.1044  155.3361 C.ar    1  UNL1        0.0070
     14 C         144.1947  138.5599  155.6866 C.ar    1  UNL1        0.0728
     15 C         143.3381  139.0026  156.8356 C.ar    1  UNL1        0.0238
     16 C         142.5725  137.9896  157.6341 C.ar    1  UNL1        0.1222
     17 C         142.6635  136.5340  157.2836 C.ar    1  UNL1        0.0229
     18 C         144.9365  131.0046  156.1361 C.3     1  UNL1        0.0736
     19 C         144.2621  132.2976  155.7848 C.ar    1  UNL1        0.1404
     20 N         143.2400  132.4938  154.7045 N.ar    1  UNL1       -0.1336
     21 N         142.8377  133.9388  154.7041 N.ar    1  UNL1       -0.1293
     22 C         143.6111  134.6357  155.7841 C.ar    1  UNL1        0.1629
     23 N         144.4915  133.6213  156.4519 N.ar    1  UNL1       -0.3246
     24 H         145.1110  133.7941  157.1973 H       1  UNL1        0.1686
     25 C         144.9603  139.5730  154.8881 C.3     1  UNL1        0.4186
     26 F         145.7260  140.5860  154.0896 F       1  UNL1       -0.1659
     27 F         145.6107  140.0716  156.1444 F       1  UNL1       -0.1659
     28 F         144.3100  139.0744  153.6318 F       1  UNL1       -0.1659
     29 C         138.5418  139.6613  164.7551 C.3     1  UNL1        0.0811
     30 C         138.3329  138.5964  165.7906 C.3     1  UNL1        0.0142
     31 C         139.1880  139.7885  166.1028 C.3     1  UNL1        0.0314
     32 C         140.0549  140.5503  167.0611 C.ar    1  UNL1       -0.0220
     33 C         139.6917  140.6112  168.5152 C.ar    1  UNL1       -0.0043
     34 C         140.5584  141.3729  169.4735 C.ar    1  UNL1        0.0035
     35 C         141.7885  142.0738  168.9778 C.ar    1  UNL1        0.0714
     36 C         142.1518  142.0129  167.5237 C.ar    1  UNL1        0.0035
     37 C         141.2849  141.2512  166.5654 C.ar    1  UNL1       -0.0043
     38 C         142.6553  142.8356  169.9361 C.3     1  UNL1        0.4186
     39 F         143.5221  143.5973  170.8944 F       1  UNL1       -0.1659
     40 F         143.7400  141.8133  169.7675 F       1  UNL1       -0.1659
     41 F         141.5706  143.8578  170.1047 F       1  UNL1       -0.1659
@<TRIPOS>BOND
     1    18    19    1
     2    19    20   ar
     3    20    21   ar
     4    21    22   ar
     5    22    12    1
     6    12    13   ar
     7    13    14   ar
     8    14    25    1
     9    25    26    1
    10    25    27    1
    11    25    28    1
    12    14    15   ar
    13    15    16   ar
    14    16     9    1
    15     9    10    2
    16     9    11    2
    17     9     1    1
    18     1     2    1
    19     2     3    1
    20     3     4    1
    21     4     5   am
    22     5     6    2
    23    29     5    1
    24    29    30    1
    25    30    31    1
    26    31    32    1
    27    32    33   ar
    28    33    34   ar
    29    34    35   ar
    30    35    38    1
    31    38    39    1
    32    38    40    1
    33    38    41    1
    34    35    36   ar
    35    36    37   ar
    36     4     7    1
    37     7     8    1
    38    16    17   ar
    39    22    23   ar
    40    23    19   ar
    41    17    12   ar
    42     8     1    1
    43    31    29    1
    44    37    32   ar
    45    23    24    1
@<TRIPOS>MOLECULE
*****
 41 45 0 0 0
SMALL
GASTEIGER

@<TRIPOS>ATOM
      1 N         142.4408  139.7357  159.3431 N.3     1  UNL1       -0.1520
      2 C         141.4417  139.9672  160.4376 C.3     1  UNL1        0.1173
      3 C         141.6337  141.1008  161.4010 C.3     1  UNL1        0.1126
      4 N         142.8248  142.0029  161.2698 N.am    1  UNL1       -0.2766
      5 C         143.0168  143.1365  162.2332 C.2     1  UNL1        0.2256
      6 O         144.2080  144.0386  162.1020 O.2     1  UNL1       -0.2749
      7 C         143.8240  141.7714  160.1753 C.3     1  UNL1        0.1126
      8 C         143.6320  140.6378  159.2120 C.3     1  UNL1        0.1173
      9 S         142.2488  138.6021  158.3798 S.O2    1  UNL1        0.0634
     10 O         140.8992  138.3261  158.9734 O.2     1  UNL1       -0.1528
     11 O         143.5984  138.8780  157.7861 O.2     1  UNL1       -0.1528
     12 C         142.6906  135.0897  156.5859 C.ar    1  UNL1        0.0370
     13 C         141.6728  135.2012  155.4897 C.ar    1  UNL1        0.0070
     14 C         140.8471  136.4464  155.3568 C.ar    1  UNL1        0.0728
     15 C         141.0391  137.5800  156.3202 C.ar    1  UNL1        0.0238
     16 C         142.0568  137.4685  157.4164 C.ar    1  UNL1        0.1222
     17 C         142.8826  136.2233  157.5493 C.ar    1  UNL1        0.0229
     18 C         144.9585  130.4340  155.5549 C.3     1  UNL1        0.0736
     19 C         144.5588  131.7046  156.2449 C.ar    1  UNL1        0.1404
     20 N         145.0154  132.1522  157.6018 N.ar    1  UNL1       -0.1336
     21 N         144.3712  133.4748  157.8947 N.ar    1  UNL1       -0.1293
     22 C         143.5164  133.8445  156.7188 C.ar    1  UNL1        0.1629
     23 N         143.6323  132.7504  155.6992 N.ar    1  UNL1       -0.3246
     24 H         143.1798  132.7235  154.8253 H       1  UNL1        0.1686
     25 C         139.8293  136.5580  154.2606 C.3     1  UNL1        0.4186
     26 F         138.8115  136.6696  153.1644 F       1  UNL1       -0.1659
     27 F         138.7591  136.8131  155.2802 F       1  UNL1       -0.1659
     28 F         140.8995  136.3029  153.2410 F       1  UNL1       -0.1659
     29 C         142.0177  143.3680  163.3277 C.3     1  UNL1        0.0811
     30 C         141.2993  144.3036  164.2543 C.3     1  UNL1        0.0142
     31 C         141.0054  142.8333  164.2969 C.3     1  UNL1        0.0314
     32 C         140.2511  141.6757  164.8811 C.ar    1  UNL1       -0.0220
     33 C         138.9290  141.2717  164.2992 C.ar    1  UNL1       -0.0043
     34 C         138.1748  140.1141  164.8833 C.ar    1  UNL1        0.0035
     35 C         138.7427  139.3606  166.0494 C.ar    1  UNL1        0.0714
     36 C         140.0648  139.7647  166.6314 C.ar    1  UNL1        0.0035
     37 C         140.8191  140.9223  166.0472 C.ar    1  UNL1       -0.0043
     38 C         137.9885  138.2031  166.6336 C.3     1  UNL1        0.4186
     39 F         137.2343  137.0456  167.2177 F       1  UNL1       -0.1659
     40 F         137.6328  139.0376  167.8281 F       1  UNL1       -0.1659
     41 F         138.3441  137.3686  165.4390 F       1  UNL1       -0.1659
@<TRIPOS>BOND
     1    18    19    1
     2    19    20   ar
     3    20    21   ar
     4    21    22   ar
     5    22    12    1
     6    12    13   ar
     7    13    14   ar
     8    14    25    1
     9    25    26    1
    10    25    27    1
    11    25    28    1
    12    14    15   ar
    13    15    16   ar
    14    16     9    1
    15     9    10    2
    16     9    11    2
    17     9     1    1
    18     1     2    1
    19     2     3    1
    20     3     4    1
    21     4     5   am
    22     5     6    2
    23    29     5    1
    24    29    30    1
    25    30    31    1
    26    31    32    1
    27    32    33   ar
    28    33    34   ar
    29    34    35   ar
    30    35    38    1
    31    38    39    1
    32    38    40    1
    33    38    41    1
    34    35    36   ar
    35    36    37   ar
    36     4     7    1
    37     7     8    1
    38    16    17   ar
    39    22    23   ar
    40    23    19   ar
    41    17    12   ar
    42     8     1    1
    43    31    29    1
    44    37    32   ar
    45    23    24    1
@<TRIPOS>MOLECULE
*****
 41 45 0 0 0
SMALL
GASTEIGER

@<TRIPOS>ATOM
      1 N         138.6565  140.2653  159.6556 N.3     1  UNL1       -0.1520
      2 C         138.1112  140.5714  161.0189 C.3     1  UNL1        0.1173
      3 C         138.5777  139.7841  162.2075 C.3     1  UNL1        0.1126
      4 N         139.5895  138.6907  162.0326 N.am    1  UNL1       -0.2766
      5 C         140.0560  137.9034  163.2211 C.2     1  UNL1        0.2256
      6 O         141.0678  136.8100  163.0462 O.2     1  UNL1       -0.2749
      7 C         140.1348  138.3846  160.6692 C.3     1  UNL1        0.1126
      8 C         139.6683  139.1719  159.4807 C.3     1  UNL1        0.1173
      9 S         138.1900  141.0526  158.4670 S.O2    1  UNL1        0.0634
     10 O         138.2105  142.3067  159.2897 O.2     1  UNL1       -0.1528
     11 O         138.1695  139.7985  157.6444 O.2     1  UNL1       -0.1528
     12 C         137.9918  143.8679  155.6769 C.ar    1  UNL1        0.0370
     13 C         136.7905  143.4144  154.9015 C.ar    1  UNL1        0.0070
     14 C         136.0557  142.1737  155.3146 C.ar    1  UNL1        0.0728
     15 C         136.5222  141.3865  156.5032 C.ar    1  UNL1        0.0238
     16 C         137.7235  141.8399  157.2785 C.ar    1  UNL1        0.1222
     17 C         138.4583  143.0806  156.8654 C.ar    1  UNL1        0.0229
     18 C         139.2173  148.9359  154.8435 C.3     1  UNL1        0.0736
     19 C         139.2899  147.4381  154.8807 C.ar    1  UNL1        0.1404
     20 N         140.4250  146.5976  154.3755 N.ar    1  UNL1       -0.1336
     21 N         140.0769  145.1579  154.6123 N.ar    1  UNL1       -0.1293
     22 C         138.7266  145.1086  155.2638 C.ar    1  UNL1        0.1629
     23 N         138.2403  146.5178  155.4297 N.ar    1  UNL1       -0.3246
     24 H         137.3828  146.7908  155.8289 H       1  UNL1        0.1686
     25 C         134.8544  141.7203  154.5392 C.3     1  UNL1        0.4186
     26 F         133.6531  141.2668  153.7638 F       1  UNL1       -0.1659
     27 F         135.3975  142.3850  153.3092 F       1  UNL1       -0.1659
     28 F         134.3113  141.0556  155.7693 F       1  UNL1       -0.1659
     29 C         139.5107  138.2096  164.5845 C.3     1  UNL1        0.0811
     30 C         138.4394  138.0470  165.6217 C.3     1  UNL1        0.0142
     31 C         139.6376  138.9024  165.9088 C.3     1  UNL1        0.0314
     32 C         140.4027  139.7964  166.8392 C.ar    1  UNL1       -0.0220
     33 C         141.9011  139.8334  166.7807 C.ar    1  UNL1       -0.0043
     34 C         142.6661  140.7273  167.7110 C.ar    1  UNL1        0.0035
     35 C         141.9328  141.5842  168.7000 C.ar    1  UNL1        0.0714
     36 C         140.4344  141.5472  168.7585 C.ar    1  UNL1        0.0035
     37 C         139.6693  140.6532  167.8281 C.ar    1  UNL1       -0.0043
     38 C         142.6978  142.4781  169.6303 C.3     1  UNL1        0.4186
     39 F         143.4629  143.3720  170.5607 F       1  UNL1       -0.1659
     40 F         143.8243  142.5426  168.6420 F       1  UNL1       -0.1659
     41 F         141.5714  142.4136  170.6186 F       1  UNL1       -0.1659
@<TRIPOS>BOND
     1    18    19    1
     2    19    20   ar
     3    20    21   ar
     4    21    22   ar
     5    22    12    1
     6    12    13   ar
     7    13    14   ar
     8    14    25    1
     9    25    26    1
    10    25    27    1
    11    25    28    1
    12    14    15   ar
    13    15    16   ar
    14    16     9    1
    15     9    10    2
    16     9    11    2
    17     9     1    1
    18     1     2    1
    19     2     3    1
    20     3     4    1
    21     4     5   am
    22     5     6    2
    23    29     5    1
    24    29    30    1
    25    30    31    1
    26    31    32    1
    27    32    33   ar
    28    33    34   ar
    29    34    35   ar
    30    35    38    1
    31    38    39    1
    32    38    40    1
    33    38    41    1
    34    35    36   ar
    35    36    37   ar
    36     4     7    1
    37     7     8    1
    38    16    17   ar
    39    22    23   ar
    40    23    19   ar
    41    17    12   ar
    42     8     1    1
    43    31    29    1
    44    37    32   ar
    45    23    24    1
@<TRIPOS>MOLECULE
*****
 41 45 0 0 0
SMALL
GASTEIGER

@<TRIPOS>ATOM
      1 N         140.8799  139.0123  159.8489 N.3     1  UNL1       -0.1520
      2 C         141.1084  138.4705  161.2288 C.3     1  UNL1        0.1173
      3 C         140.2190  138.8972  162.3588 C.3     1  UNL1        0.1126
      4 N         139.1011  139.8656  162.1089 N.am    1  UNL1       -0.2766
      5 C         138.2117  140.2922  163.2389 C.2     1  UNL1        0.2256
      6 O         137.0938  141.2606  162.9890 O.2     1  UNL1       -0.2749
      7 C         138.8726  140.4074  160.7290 C.3     1  UNL1        0.1126
      8 C         139.7621  139.9807  159.5990 C.3     1  UNL1        0.1173
      9 S         141.7694  138.5857  158.7189 S.O2    1  UNL1        0.0634
     10 O         142.5294  137.6927  159.6542 O.2     1  UNL1       -0.1528
     11 O         141.0093  139.4787  157.7835 O.2     1  UNL1       -0.1528
     12 C         144.3939  138.7459  155.7463 C.ar    1  UNL1        0.0370
     13 C         144.4377  137.3059  155.3288 C.ar    1  UNL1        0.0070
     14 C         143.5920  136.2924  156.0414 C.ar    1  UNL1        0.0728
     15 C         142.7026  136.7190  157.1714 C.ar    1  UNL1        0.0238
     16 C         142.6588  138.1591  157.5889 C.ar    1  UNL1        0.1222
     17 C         143.5044  139.1725  156.8763 C.ar    1  UNL1        0.0229
     18 C         147.9843  142.4903  154.7615 C.3     1  UNL1        0.0736
     19 C         146.8898  141.4805  154.5810 C.ar    1  UNL1        0.1404
     20 N         146.1917  141.1575  153.2932 N.ar    1  UNL1       -0.1336
     21 N         145.1718  140.0938  153.5730 N.ar    1  UNL1       -0.1293
     22 C         145.2395  139.7594  155.0337 C.ar    1  UNL1        0.1629
     23 N         146.3013  140.6164  155.6567 N.ar    1  UNL1       -0.3246
     24 H         146.5655  140.6125  156.6050 H       1  UNL1        0.1686
     25 C         143.6358  134.8523  155.6240 C.3     1  UNL1        0.4186
     26 F         143.6796  133.4122  155.2067 F       1  UNL1       -0.1659
     27 F         144.0921  134.4674  157.0000 F       1  UNL1       -0.1659
     28 F         143.1794  135.2372  154.2480 F       1  UNL1       -0.1659
     29 C         138.4401  139.7504  164.6188 C.3     1  UNL1        0.0811
     30 C         138.2057  138.6898  165.6532 C.3     1  UNL1        0.0142
     31 C         139.0702  139.8727  165.9745 C.3     1  UNL1        0.0314
     32 C         139.9333  140.6262  166.9428 C.ar    1  UNL1       -0.0220
     33 C         139.6467  140.5574  168.4136 C.ar    1  UNL1       -0.0043
     34 C         140.5096  141.3109  169.3818 C.ar    1  UNL1        0.0035
     35 C         141.6592  142.1332  168.8793 C.ar    1  UNL1        0.0714
     36 C         141.9457  142.2020  167.4085 C.ar    1  UNL1        0.0035
     37 C         141.0827  141.4485  166.4403 C.ar    1  UNL1       -0.0043
     38 C         142.5221  142.8867  169.8476 C.3     1  UNL1        0.4186
     39 F         143.3851  143.6402  170.8158 F       1  UNL1       -0.1659
     40 F         143.6291  141.8982  169.6302 F       1  UNL1       -0.1659
     41 F         141.4151  143.8752  170.0649 F       1  UNL1       -0.1659
@<TRIPOS>BOND
     1    18    19    1
     2    19    20   ar
     3    20    21   ar
     4    21    22   ar
     5    22    12    1
     6    12    13   ar
     7    13    14   ar
     8    14    25    1
     9    25    26    1
    10    25    27    1
    11    25    28    1
    12    14    15   ar
    13    15    16   ar
    14    16     9    1
    15     9    10    2
    16     9    11    2
    17     9     1    1
    18     1     2    1
    19     2     3    1
    20     3     4    1
    21     4     5   am
    22     5     6    2
    23    29     5    1
    24    29    30    1
    25    30    31    1
    26    31    32    1
    27    32    33   ar
    28    33    34   ar
    29    34    35   ar
    30    35    38    1
    31    38    39    1
    32    38    40    1
    33    38    41    1
    34    35    36   ar
    35    36    37   ar
    36     4     7    1
    37     7     8    1
    38    16    17   ar
    39    22    23   ar
    40    23    19   ar
    41    17    12   ar
    42     8     1    1
    43    31    29    1
    44    37    32   ar
    45    23    24    1
@<TRIPOS>MOLECULE
*****
 41 45 0 0 0
SMALL
GASTEIGER

@<TRIPOS>ATOM
      1 N         141.7906  139.6878  162.2028 N.3     1  UNL1       -0.1520
      2 C         141.0251  138.9250  161.1625 C.3     1  UNL1        0.1173
      3 C         141.5451  138.8438  159.7579 C.3     1  UNL1        0.1126
      4 N         142.8306  139.5254  159.3935 N.am    1  UNL1       -0.2766
      5 C         143.3507  139.4442  157.9889 C.2     1  UNL1        0.2256
      6 O         144.6362  140.1258  157.6245 O.2     1  UNL1       -0.2749
      7 C         143.5961  140.2882  160.4337 C.3     1  UNL1        0.1126
      8 C         143.0761  140.3694  161.8384 C.3     1  UNL1        0.1173
      9 S         141.2706  139.7690  163.6074 S.O2    1  UNL1        0.0634
     10 O         141.4749  141.2550  163.5972 O.2     1  UNL1       -0.1528
     11 O         141.0662  138.2830  163.6177 O.2     1  UNL1       -0.1528
     12 C         140.9579  140.7529  167.4394 C.ar    1  UNL1        0.0370
     13 C         139.7105  140.0126  167.8213 C.ar    1  UNL1        0.0070
     14 C         138.9831  139.1911  166.7986 C.ar    1  UNL1        0.0728
     15 C         139.5031  139.1099  165.3939 C.ar    1  UNL1        0.0238
     16 C         140.7505  139.8502  165.0120 C.ar    1  UNL1        0.1222
     17 C         141.4779  140.6717  166.0347 C.ar    1  UNL1        0.0229
     18 C         144.8201  143.0138  170.2417 C.3     1  UNL1        0.0736
     19 C         143.4605  142.6137  169.7502 C.ar    1  UNL1        0.1404
     20 N         142.1487  143.0639  170.3217 N.ar    1  UNL1       -0.1336
     21 N         141.0516  142.4216  169.5256 N.ar    1  UNL1       -0.1293
     22 C         141.6853  141.5745  168.4621 C.ar    1  UNL1        0.1629
     23 N         143.1741  141.6933  168.6010 N.ar    1  UNL1       -0.3246
     24 H         143.8454  141.2457  168.0369 H       1  UNL1        0.1686
     25 C         137.7357  138.4507  167.1805 C.3     1  UNL1        0.4186
     26 F         136.4883  137.7103  167.5623 F       1  UNL1       -0.1659
     27 F         137.8022  137.6769  165.8972 F       1  UNL1       -0.1659
     28 F         137.6692  139.2245  168.4637 F       1  UNL1       -0.1659
     29 C         142.5852  138.6814  156.9487 C.3     1  UNL1        0.0811
     30 C         141.6586  138.6653  155.7692 C.3     1  UNL1        0.0142
     31 C         142.1859  137.3763  156.3264 C.3     1  UNL1        0.0314
     32 C         142.2598  135.8785  156.2888 C.ar    1  UNL1       -0.0220
     33 C         143.2151  135.1520  157.1885 C.ar    1  UNL1       -0.0043
     34 C         143.2891  133.6543  157.1509 C.ar    1  UNL1        0.0035
     35 C         142.4077  132.8831  156.2136 C.ar    1  UNL1        0.0714
     36 C         141.4524  133.6097  155.3139 C.ar    1  UNL1        0.0035
     37 C         141.3785  135.1074  155.3515 C.ar    1  UNL1       -0.0043
     38 C         142.4816  131.3854  156.1760 C.3     1  UNL1        0.4186
     39 F         142.5556  129.8878  156.1384 F       1  UNL1       -0.1659
     40 F         143.5466  131.4115  157.2320 F       1  UNL1       -0.1659
     41 F         141.4167  131.3593  155.1200 F       1  UNL1       -0.1659
@<TRIPOS>BOND
     1    18    19    1
     2    19    20   ar
     3    20    21   ar
     4    21    22   ar
     5    22    12    1
     6    12    13   ar
     7    13    14   ar
     8    14    25    1
     9    25    26    1
    10    25    27    1
    11    25    28    1
    12    14    15   ar
    13    15    16   ar
    14    16     9    1
    15     9    10    2
    16     9    11    2
    17     9     1    1
    18     1     2    1
    19     2     3    1
    20     3     4    1
    21     4     5   am
    22     5     6    2
    23    29     5    1
    24    29    30    1
    25    30    31    1
    26    31    32    1
    27    32    33   ar
    28    33    34   ar
    29    34    35   ar
    30    35    38    1
    31    38    39    1
    32    38    40    1
    33    38    41    1
    34    35    36   ar
    35    36    37   ar
    36     4     7    1
    37     7     8    1
    38    16    17   ar
    39    22    23   ar
    40    23    19   ar
    41    17    12   ar
    42     8     1    1
    43    31    29    1
    44    37    32   ar
    45    23    24    1
@<TRIPOS>MOLECULE
*****
 41 45 0 0 0
SMALL
GASTEIGER

@<TRIPOS>ATOM
      1 N         141.7829  142.7838  159.8968 N.3     1  UNL1       -0.1520
      2 C         141.2555  141.9319  161.0130 C.3     1  UNL1        0.1173
      3 C         142.1808  141.4518  162.0916 C.3     1  UNL1        0.1126
      4 N         143.6335  141.8235  162.0539 N.am    1  UNL1       -0.2766
      5 C         144.5587  141.3433  163.1325 C.2     1  UNL1        0.2256
      6 O         146.0114  141.7150  163.0948 O.2     1  UNL1       -0.2749
      7 C         144.1609  142.6754  160.9376 C.3     1  UNL1        0.1126
      8 C         143.2356  143.1555  159.8591 C.3     1  UNL1        0.1173
      9 S         140.8576  143.2640  158.8182 S.O2    1  UNL1        0.0634
     10 O         141.6558  144.5281  158.6962 O.2     1  UNL1       -0.1528
     11 O         140.0595  141.9998  158.9402 O.2     1  UNL1       -0.1528
     12 C         139.1176  145.6298  156.1490 C.ar    1  UNL1        0.0370
     13 C         138.0818  144.7045  155.5825 C.ar    1  UNL1        0.0070
     14 C         137.9713  143.2990  156.0946 C.ar    1  UNL1        0.0728
     15 C         138.8966  142.8188  157.1732 C.ar    1  UNL1        0.0238
     16 C         139.9324  143.7441  157.7396 C.ar    1  UNL1        0.1222
     17 C         140.0428  145.1497  157.2275 C.ar    1  UNL1        0.0229
     18 C         138.4919  150.8463  155.6219 C.3     1  UNL1        0.0736
     19 C         138.9405  149.4331  155.3946 C.ar    1  UNL1        0.1404
     20 N         139.8558  148.9635  154.3030 N.ar    1  UNL1       -0.1336
     21 N         140.0335  147.4816  154.4527 N.ar    1  UNL1       -0.1293
     22 C         139.2281  147.0354  155.6369 C.ar    1  UNL1        0.1629
     23 N         138.5525  148.2415  156.2190 N.ar    1  UNL1       -0.3246
     24 H         137.9588  148.2497  157.0042 H       1  UNL1        0.1686
     25 C         136.9355  142.3735  155.5281 C.3     1  UNL1        0.4186
     26 F         135.8998  141.4482  154.9617 F       1  UNL1       -0.1659
     27 F         136.2798  143.5314  154.8358 F       1  UNL1       -0.1659
     28 F         137.5913  141.2157  156.2204 F       1  UNL1       -0.1659
     29 C         144.0313  140.4914  164.2487 C.3     1  UNL1        0.0811
     30 C         143.8838  139.1480  164.8993 C.3     1  UNL1        0.0142
     31 C         143.2653  140.3594  165.5316 C.3     1  UNL1        0.0314
     32 C         142.4658  140.9826  166.6373 C.ar    1  UNL1       -0.0220
     33 C         142.6747  140.5399  168.0552 C.ar    1  UNL1       -0.0043
     34 C         141.8753  141.1630  169.1609 C.ar    1  UNL1        0.0035
     35 C         140.8670  142.2289  168.8488 C.ar    1  UNL1        0.0714
     36 C         140.6582  142.6716  167.4309 C.ar    1  UNL1        0.0035
     37 C         141.4576  142.0484  166.3251 C.ar    1  UNL1       -0.0043
     38 C         140.0676  142.8521  169.9545 C.3     1  UNL1        0.4186
     39 F         139.2683  143.4752  171.0602 F       1  UNL1       -0.1659
     40 F         139.2605  141.5940  170.0800 F       1  UNL1       -0.1659
     41 F         140.8747  144.1101  169.8290 F       1  UNL1       -0.1659
@<TRIPOS>BOND
     1    18    19    1
     2    19    20   ar
     3    20    21   ar
     4    21    22   ar
     5    22    12    1
     6    12    13   ar
     7    13    14   ar
     8    14    25    1
     9    25    26    1
    10    25    27    1
    11    25    28    1
    12    14    15   ar
    13    15    16   ar
    14    16     9    1
    15     9    10    2
    16     9    11    2
    17     9     1    1
    18     1     2    1
    19     2     3    1
    20     3     4    1
    21     4     5   am
    22     5     6    2
    23    29     5    1
    24    29    30    1
    25    30    31    1
    26    31    32    1
    27    32    33   ar
    28    33    34   ar
    29    34    35   ar
    30    35    38    1
    31    38    39    1
    32    38    40    1
    33    38    41    1
    34    35    36   ar
    35    36    37   ar
    36     4     7    1
    37     7     8    1
    38    16    17   ar
    39    22    23   ar
    40    23    19   ar
    41    17    12   ar
    42     8     1    1
    43    31    29    1
    44    37    32   ar
    45    23    24    1
@<TRIPOS>MOLECULE
*****
 41 45 0 0 0
SMALL
GASTEIGER

@<TRIPOS>ATOM
      1 N         141.3519  139.3081  159.7911 N.3     1  UNL1       -0.1520
      2 C         142.2758  138.4186  159.0134 C.3     1  UNL1        0.1173
      3 C         141.7812  137.7141  157.7850 C.3     1  UNL1        0.1126
      4 N         140.3626  137.8992  157.3343 N.am    1  UNL1       -0.2766
      5 C         139.8679  137.1947  156.1059 C.2     1  UNL1        0.2256
      6 O         138.4493  137.3798  155.6551 O.2     1  UNL1       -0.2749
      7 C         139.4386  138.7887  158.1120 C.3     1  UNL1        0.1126
      8 C         139.9332  139.4932  159.3404 C.3     1  UNL1        0.1173
      9 S         141.8465  140.0126  161.0196 S.O2    1  UNL1        0.0634
     10 O         141.2992  141.3078  160.4972 O.2     1  UNL1       -0.1528
     11 O         142.3937  138.7174  161.5420 O.2     1  UNL1       -0.1528
     12 C         142.9033  140.6903  164.7844 C.ar    1  UNL1        0.0370
     13 C         143.3304  142.1260  164.7049 C.ar    1  UNL1        0.0070
     14 C         143.2629  142.8572  163.3969 C.ar    1  UNL1        0.0728
     15 C         142.7682  142.1527  162.1685 C.ar    1  UNL1        0.0238
     16 C         142.3411  140.7171  162.2480 C.ar    1  UNL1        0.1222
     17 C         142.4087  139.9859  163.5559 C.ar    1  UNL1        0.0229
     18 C         142.2758  139.4367  169.8751 C.3     1  UNL1        0.0736
     19 C         142.6824  139.3828  168.4323 C.ar    1  UNL1        0.1404
     20 N         143.4671  138.2846  167.7778 N.ar    1  UNL1       -0.1336
     21 N         143.6454  138.6408  166.3317 N.ar    1  UNL1       -0.1293
     22 C         142.9708  139.9590  166.0924 C.ar    1  UNL1        0.1629
     23 N         142.3757  140.4176  167.3906 N.ar    1  UNL1       -0.3246
     24 H         141.8722  141.2514  167.5339 H       1  UNL1        0.1686
     25 C         143.6900  144.2930  163.3174 C.3     1  UNL1        0.4186
     26 F         144.1171  145.7286  163.2378 F       1  UNL1       -0.1659
     27 F         144.8019  143.9105  162.3861 F       1  UNL1       -0.1659
     28 F         142.5781  144.6754  164.2487 F       1  UNL1       -0.1659
     29 C         140.7919  136.3051  155.3281 C.3     1  UNL1        0.0811
     30 C         141.4405  135.9225  154.0309 C.3     1  UNL1        0.0142
     31 C         141.7438  135.1469  155.2784 C.3     1  UNL1        0.0314
     32 C         142.4685  134.0304  155.9699 C.ar    1  UNL1       -0.0220
     33 C         142.0280  132.6110  155.7668 C.ar    1  UNL1       -0.0043
     34 C         142.7526  131.4945  156.4583 C.ar    1  UNL1        0.0035
     35 C         143.9179  131.7973  157.3530 C.ar    1  UNL1        0.0714
     36 C         144.3585  133.2167  157.5562 C.ar    1  UNL1        0.0035
     37 C         143.6337  134.3332  156.8646 C.ar    1  UNL1       -0.0043
     38 C         144.6426  130.6808  158.0445 C.3     1  UNL1        0.4186
     39 F         145.3672  129.5643  158.7360 F       1  UNL1       -0.1659
     40 F         143.4941  129.7589  157.7595 F       1  UNL1       -0.1659
     41 F         145.7910  131.6027  158.3295 F       1  UNL1       -0.1659
@<TRIPOS>BOND
     1    18    19    1
     2    19    20   ar
     3    20    21   ar
     4    21    22   ar
     5    22    12    1
     6    12    13   ar
     7    13    14   ar
     8    14    25    1
     9    25    26    1
    10    25    27    1
    11    25    28    1
    12    14    15   ar
    13    15    16   ar
    14    16     9    1
    15     9    10    2
    16     9    11    2
    17     9     1    1
    18     1     2    1
    19     2     3    1
    20     3     4    1
    21     4     5   am
    22     5     6    2
    23    29     5    1
    24    29    30    1
    25    30    31    1
    26    31    32    1
    27    32    33   ar
    28    33    34   ar
    29    34    35   ar
    30    35    38    1
    31    38    39    1
    32    38    40    1
    33    38    41    1
    34    35    36   ar
    35    36    37   ar
    36     4     7    1
    37     7     8    1
    38    16    17   ar
    39    22    23   ar
    40    23    19   ar
    41    17    12   ar
    42     8     1    1
    43    31    29    1
    44    37    32   ar
    45    23    24    1
