@<TRIPOS>MOLECULE
*****
 29 32 0 0 0
SMALL
GASTEIGER

@<TRIPOS>ATOM
      1 C         139.1730  139.5850  164.9480 C.ar    1  UNL1        0.0040
      2 C         139.3983  138.1499  164.5745 C.ar    1  UNL1        0.0208
      3 C         139.0933  137.6802  163.1829 C.ar    1  UNL1        0.1003
      4 N         138.5629  138.6458  162.1649 N.ar    1  UNL1       -0.2294
      5 C         138.3376  140.0809  162.5384 C.ar    1  UNL1        0.1288
      6 C         138.6426  140.5505  163.9300 C.ar    1  UNL1        0.0341
      7 C         137.5934  138.5264  167.2684 C.3     1  UNL1        0.0310
      8 C         138.6882  139.5253  167.4998 C.ar    1  UNL1       -0.0212
      9 C         138.9932  139.9949  168.8913 C.ar    1  UNL1        0.0060
     10 C         140.0881  140.9939  169.1226 C.ar    1  UNL1        0.0681
     11 C         140.8779  141.5232  167.9624 C.ar    1  UNL1        0.0103
     12 C         140.5728  141.0536  166.5709 C.ar    1  UNL1        0.0004
     13 C         139.4780  140.0546  166.3396 C.ar    1  UNL1       -0.0038
     14 C         140.3931  141.4635  170.5142 C.1     1  UNL1        0.1004
     15 N         140.6982  141.9332  171.9058 N.1     1  UNL1       -0.1908
     16 N         137.8072  141.0464  161.5204 N.pl3   1  UNL1       -0.3132
     17 H         137.4137  140.7114  160.6824 H       1  UNL1        0.1485
     18 C         137.8763  142.5224  161.7791 C.3     1  UNL1        0.1368
     19 C         139.0791  143.3049  161.3422 C.ar    1  UNL1        0.1032
     20 N         139.3709  143.7665  159.9451 N.ar    1  UNL1       -0.1492
     21 N         140.6734  144.5101  159.9652 N.ar    1  UNL1       -0.1306
     22 C         141.1867  144.5080  161.3746 C.ar    1  UNL1        0.1648
     23 N         142.4240  145.0881  161.9930 N.ar    1  UNL1       -0.3145
     24 C         142.6760  144.9234  163.4625 C.ar    1  UNL1        0.2018
     25 F         143.9134  145.5036  164.0809 F       1  UNL1       -0.1852
     26 C         141.6906  144.1786  164.3135 C.ar    1  UNL1        0.0479
     27 C         140.4533  143.5985  163.6951 C.ar    1  UNL1        0.0082
     28 C         140.2014  143.7632  162.2257 C.ar    1  UNL1        0.0528
     29 H         143.0708  145.5770  161.4344 H       1  UNL1        0.1695
@<TRIPOS>BOND
     1     7     8    1
     2     8     9   ar
     3     9    10   ar
     4    10    14    1
     5    14    15    3
     6    10    11   ar
     7    11    12   ar
     8    12    13   ar
     9    13     1    1
    10     1     2   ar
    11     2     3   ar
    12     3     4   ar
    13     4     5   ar
    14     5    16    1
    15    16    18    1
    16    18    19    1
    17    19    20   ar
    18    20    21   ar
    19    21    22   ar
    20    22    23   ar
    21    23    24   ar
    22    24    25    1
    23    24    26   ar
    24    26    27   ar
    25    27    28   ar
    26     5     6   ar
    27    13     8   ar
    28     6     1   ar
    29    28    19   ar
    30    28    22    1
    31    16    17    1
    32    23    29    1
@<TRIPOS>MOLECULE
*****
 29 32 0 0 0
SMALL
GASTEIGER

@<TRIPOS>ATOM
      1 C         143.2602  142.4093  164.8446 C.ar    1  UNL1        0.0040
      2 C         143.8024  143.6486  164.1965 C.ar    1  UNL1        0.0208
      3 C         144.5440  143.5520  162.8963 C.ar    1  UNL1        0.1003
      4 N         144.7435  142.2160  162.2441 N.ar    1  UNL1       -0.2294
      5 C         144.2013  140.9767  162.8921 C.ar    1  UNL1        0.1288
      6 C         143.4596  141.0733  164.1923 C.ar    1  UNL1        0.0341
      7 C         140.3068  142.9361  164.8511 C.3     1  UNL1        0.0310
      8 C         141.0418  142.7693  166.1480 C.ar    1  UNL1       -0.0212
      9 C         140.3001  142.8659  167.4482 C.ar    1  UNL1        0.0060
     10 C         141.0351  142.6990  168.7452 C.ar    1  UNL1        0.0681
     11 C         142.5118  142.4356  168.7419 C.ar    1  UNL1        0.0103
     12 C         143.2535  142.3390  167.4416 C.ar    1  UNL1        0.0004
     13 C         142.5185  142.5058  166.1448 C.ar    1  UNL1       -0.0038
     14 C         140.2935  142.7956  170.0454 C.1     1  UNL1        0.1004
     15 N         139.5518  142.8921  171.3457 N.1     1  UNL1       -0.1908
     16 N         144.4008  139.6407  162.2399 N.pl3   1  UNL1       -0.3132
     17 H         144.9503  139.5673  161.4263 H       1  UNL1        0.1485
     18 C         143.7630  138.4166  162.8273 C.3     1  UNL1        0.1368
     19 C         142.2846  138.2025  162.6914 C.ar    1  UNL1        0.1032
     20 N         141.5765  137.6889  161.4729 N.ar    1  UNL1       -0.1492
     21 N         140.1090  137.6335  161.7786 N.ar    1  UNL1       -0.1306
     22 C         139.9102  138.1129  163.1860 C.ar    1  UNL1        0.1648
     23 N         138.6786  138.2746  164.0267 N.ar    1  UNL1       -0.3145
     24 C         138.7915  138.7879  165.4315 C.ar    1  UNL1        0.2018
     25 F         137.5598  138.9497  166.2723 F       1  UNL1       -0.1852
     26 C         140.1362  139.1397  165.9957 C.ar    1  UNL1        0.0479
     27 C         141.3678  138.9780  165.1550 C.ar    1  UNL1        0.0082
     28 C         141.2549  138.4646  163.7501 C.ar    1  UNL1        0.0528
     29 H         137.7960  138.0437  163.6564 H       1  UNL1        0.1695
@<TRIPOS>BOND
     1     7     8    1
     2     8     9   ar
     3     9    10   ar
     4    10    14    1
     5    14    15    3
     6    10    11   ar
     7    11    12   ar
     8    12    13   ar
     9    13     1    1
    10     1     2   ar
    11     2     3   ar
    12     3     4   ar
    13     4     5   ar
    14     5    16    1
    15    16    18    1
    16    18    19    1
    17    19    20   ar
    18    20    21   ar
    19    21    22   ar
    20    22    23   ar
    21    23    24   ar
    22    24    25    1
    23    24    26   ar
    24    26    27   ar
    25    27    28   ar
    26     5     6   ar
    27    13     8   ar
    28     6     1   ar
    29    28    19   ar
    30    28    22    1
    31    16    17    1
    32    23    29    1
@<TRIPOS>MOLECULE
*****
 29 32 0 0 0
SMALL
GASTEIGER

@<TRIPOS>ATOM
      1 C         141.1219  139.0175  164.9853 C.ar    1  UNL1        0.0040
      2 C         141.0111  137.5373  164.7695 C.ar    1  UNL1        0.0208
      3 C         141.0949  136.9733  163.3821 C.ar    1  UNL1        0.1003
      4 N         141.2896  137.8894  162.2104 N.ar    1  UNL1       -0.2294
      5 C         141.4004  139.3696  162.4262 C.ar    1  UNL1        0.1288
      6 C         141.3166  139.9337  163.8136 C.ar    1  UNL1        0.0341
      7 C         138.4462  139.6242  166.1986 C.3     1  UNL1        0.0310
      8 C         139.7002  139.8850  166.9793 C.ar    1  UNL1       -0.0212
      9 C         139.6164  140.4491  168.3667 C.ar    1  UNL1        0.0060
     10 C         140.8705  140.7098  169.1473 C.ar    1  UNL1        0.0681
     11 C         142.2084  140.4064  168.5406 C.ar    1  UNL1        0.0103
     12 C         142.2922  139.8423  167.1532 C.ar    1  UNL1        0.0004
     13 C         141.0381  139.5816  166.3726 C.ar    1  UNL1       -0.0038
     14 C         140.7867  141.2739  170.5347 C.1     1  UNL1        0.1004
     15 N         140.7029  141.8379  171.9221 N.1     1  UNL1       -0.1908
     16 N         141.5950  140.2858  161.2546 N.pl3   1  UNL1       -0.3132
     17 H         142.4004  140.2041  160.6943 H       1  UNL1        0.1485
     18 C         140.5625  141.3265  160.9366 C.3     1  UNL1        0.1368
     19 C         140.6755  142.7003  161.5281 C.ar    1  UNL1        0.1032
     20 N         141.5369  143.8145  161.0118 N.ar    1  UNL1       -0.1492
     21 N         141.3406  145.0039  161.9044 N.ar    1  UNL1       -0.1306
     22 C         140.3579  144.6248  162.9724 C.ar    1  UNL1        0.1648
     23 N         139.7842  145.3921  164.1266 N.ar    1  UNL1       -0.3145
     24 C         138.7995  144.7357  165.0482 C.ar    1  UNL1        0.2018
     25 F         138.2259  145.5029  166.2025 F       1  UNL1       -0.1852
     26 C         138.3885  143.3120  164.8157 C.ar    1  UNL1        0.0479
     27 C         138.9621  142.5447  163.6615 C.ar    1  UNL1        0.0082
     28 C         139.9468  143.2011  162.7399 C.ar    1  UNL1        0.0528
     29 H         140.0540  146.3265  164.2792 H       1  UNL1        0.1695
@<TRIPOS>BOND
     1     7     8    1
     2     8     9   ar
     3     9    10   ar
     4    10    14    1
     5    14    15    3
     6    10    11   ar
     7    11    12   ar
     8    12    13   ar
     9    13     1    1
    10     1     2   ar
    11     2     3   ar
    12     3     4   ar
    13     4     5   ar
    14     5    16    1
    15    16    18    1
    16    18    19    1
    17    19    20   ar
    18    20    21   ar
    19    21    22   ar
    20    22    23   ar
    21    23    24   ar
    22    24    25    1
    23    24    26   ar
    24    26    27   ar
    25    27    28   ar
    26     5     6   ar
    27    13     8   ar
    28     6     1   ar
    29    28    19   ar
    30    28    22    1
    31    16    17    1
    32    23    29    1
@<TRIPOS>MOLECULE
*****
 29 32 0 0 0
SMALL
GASTEIGER

@<TRIPOS>ATOM
      1 C         142.8721  140.3972  164.7974 C.ar    1  UNL1        0.0040
      2 C         143.2437  139.1543  164.0444 C.ar    1  UNL1        0.0208
      3 C         144.2037  139.2327  162.8945 C.ar    1  UNL1        0.1003
      4 N         144.7922  140.5541  162.4976 N.ar    1  UNL1       -0.2294
      5 C         144.4207  141.7970  163.2506 C.ar    1  UNL1        0.1288
      6 C         143.4606  141.7186  164.4004 C.ar    1  UNL1        0.0341
      7 C         139.9421  140.8487  164.3385 C.3     1  UNL1        0.0310
      8 C         140.4470  140.5446  165.7178 C.ar    1  UNL1       -0.0212
      9 C         139.4870  140.4661  166.8676 C.ar    1  UNL1        0.0060
     10 C         139.9921  140.1620  168.2470 C.ar    1  UNL1        0.0681
     11 C         141.4572  139.9363  168.4764 C.ar    1  UNL1        0.0103
     12 C         142.4172  140.0147  167.3265 C.ar    1  UNL1        0.0004
     13 C         141.9121  140.3188  165.9473 C.ar    1  UNL1       -0.0038
     14 C         139.0321  140.0836  169.3969 C.1     1  UNL1        0.1004
     15 N         138.0720  140.0053  170.5468 N.1     1  UNL1       -0.1908
     16 N         145.0092  143.1184  162.8536 N.pl3   1  UNL1       -0.3132
     17 H         145.9670  143.1852  162.6358 H       1  UNL1        0.1485
     18 C         144.1383  144.3381  162.7885 C.3     1  UNL1        0.1368
     19 C         142.8406  144.2939  162.0376 C.ar    1  UNL1        0.1032
     20 N         142.6860  144.1707  160.5507 N.ar    1  UNL1       -0.1492
     21 N         141.2194  144.1657  160.2360 N.ar    1  UNL1       -0.1306
     22 C         140.4676  144.2858  161.5284 C.ar    1  UNL1        0.1648
     23 N         139.0001  144.3333  161.8352 N.ar    1  UNL1       -0.3145
     24 C         138.5345  144.4599  163.2555 C.ar    1  UNL1        0.2018
     25 F         137.0669  144.5074  163.5623 F       1  UNL1       -0.1852
     26 C         139.5364  144.5391  164.3689 C.ar    1  UNL1        0.0479
     27 C         141.0039  144.4917  164.0622 C.ar    1  UNL1        0.0082
     28 C         141.4695  144.3650  162.6419 C.ar    1  UNL1        0.0528
     29 H         138.3425  144.2813  161.1044 H       1  UNL1        0.1695
@<TRIPOS>BOND
     1     7     8    1
     2     8     9   ar
     3     9    10   ar
     4    10    14    1
     5    14    15    3
     6    10    11   ar
     7    11    12   ar
     8    12    13   ar
     9    13     1    1
    10     1     2   ar
    11     2     3   ar
    12     3     4   ar
    13     4     5   ar
    14     5    16    1
    15    16    18    1
    16    18    19    1
    17    19    20   ar
    18    20    21   ar
    19    21    22   ar
    20    22    23   ar
    21    23    24   ar
    22    24    25    1
    23    24    26   ar
    24    26    27   ar
    25    27    28   ar
    26     5     6   ar
    27    13     8   ar
    28     6     1   ar
    29    28    19   ar
    30    28    22    1
    31    16    17    1
    32    23    29    1
@<TRIPOS>MOLECULE
*****
 29 32 0 0 0
SMALL
GASTEIGER

@<TRIPOS>ATOM
      1 C         140.3011  139.4027  164.7652 C.ar    1  UNL1        0.0040
      2 C         139.0200  138.7211  164.3854 C.ar    1  UNL1        0.0208
      3 C         139.0094  137.7051  163.2821 C.ar    1  UNL1        0.1003
      4 N         140.2800  137.3705  162.5584 N.ar    1  UNL1       -0.2294
      5 C         141.5610  138.0520  162.9382 C.ar    1  UNL1        0.1288
      6 C         141.5716  139.0681  164.0415 C.ar    1  UNL1        0.0341
      7 C         140.3734  142.3290  164.1087 C.3     1  UNL1        0.0310
      8 C         140.3478  141.8820  165.5403 C.ar    1  UNL1       -0.0212
      9 C         140.3584  142.8980  166.6437 C.ar    1  UNL1        0.0060
     10 C         140.3328  142.4509  168.0753 C.ar    1  UNL1        0.0681
     11 C         140.2967  140.9877  168.4035 C.ar    1  UNL1        0.0103
     12 C         140.2861  139.9716  167.3002 C.ar    1  UNL1        0.0004
     13 C         140.3116  140.4187  165.8686 C.ar    1  UNL1       -0.0038
     14 C         140.3434  143.4670  169.1787 C.1     1  UNL1        0.1004
     15 N         140.3539  144.4831  170.2822 N.1     1  UNL1       -0.1908
     16 N         142.8316  137.7174  162.2145 N.pl3   1  UNL1       -0.3132
     17 H         142.8877  136.8981  161.6715 H       1  UNL1        0.1485
     18 C         144.0167  138.6312  162.3181 C.3     1  UNL1        0.1368
     19 C         143.9697  139.9942  161.6936 C.ar    1  UNL1        0.1032
     20 N         143.9016  140.2889  160.2244 N.ar    1  UNL1       -0.1492
     21 N         143.8724  141.7786  160.0515 N.ar    1  UNL1       -0.1306
     22 C         143.9224  142.4046  161.4137 C.ar    1  UNL1        0.1648
     23 N         143.9210  143.8362  161.8611 N.ar    1  UNL1       -0.3145
     24 C         143.9798  144.1650  163.3234 C.ar    1  UNL1        0.2018
     25 F         143.9784  145.5968  163.7709 F       1  UNL1       -0.1852
     26 C         144.0400  143.0622  164.3383 C.ar    1  UNL1        0.0479
     27 C         144.0414  141.6305  163.8909 C.ar    1  UNL1        0.0082
     28 C         143.9826  141.3017  162.4286 C.ar    1  UNL1        0.0528
     29 H         143.8815  144.5601  161.1950 H       1  UNL1        0.1695
@<TRIPOS>BOND
     1     7     8    1
     2     8     9   ar
     3     9    10   ar
     4    10    14    1
     5    14    15    3
     6    10    11   ar
     7    11    12   ar
     8    12    13   ar
     9    13     1    1
    10     1     2   ar
    11     2     3   ar
    12     3     4   ar
    13     4     5   ar
    14     5    16    1
    15    16    18    1
    16    18    19    1
    17    19    20   ar
    18    20    21   ar
    19    21    22   ar
    20    22    23   ar
    21    23    24   ar
    22    24    25    1
    23    24    26   ar
    24    26    27   ar
    25    27    28   ar
    26     5     6   ar
    27    13     8   ar
    28     6     1   ar
    29    28    19   ar
    30    28    22    1
    31    16    17    1
    32    23    29    1
@<TRIPOS>MOLECULE
*****
 29 32 0 0 0
SMALL
GASTEIGER

@<TRIPOS>ATOM
      1 C         140.2155  139.0714  165.1116 C.ar    1  UNL1        0.0040
      2 C         140.9660  137.8086  164.8083 C.ar    1  UNL1        0.0208
      3 C         140.8738  137.1903  163.4448 C.ar    1  UNL1        0.1003
      4 N         140.0309  137.8348  162.3845 N.ar    1  UNL1       -0.2294
      5 C         139.2804  139.0976  162.6878 C.ar    1  UNL1        0.1288
      6 C         139.3726  139.7159  164.0513 C.ar    1  UNL1        0.0341
      7 C         142.6537  140.6383  165.8861 C.3     1  UNL1        0.0310
      8 C         141.5270  140.4731  166.8624 C.ar    1  UNL1       -0.0212
      9 C         141.6192  141.0914  168.2259 C.ar    1  UNL1        0.0060
     10 C         140.4924  140.9262  169.2022 C.ar    1  UNL1        0.0681
     11 C         139.2733  140.1427  168.8149 C.ar    1  UNL1        0.0103
     12 C         139.1810  139.5245  167.4514 C.ar    1  UNL1        0.0004
     13 C         140.3078  139.6897  166.4751 C.ar    1  UNL1       -0.0038
     14 C         140.5847  141.5445  170.5657 C.1     1  UNL1        0.1004
     15 N         140.6770  142.1628  171.9293 N.1     1  UNL1       -0.1908
     16 N         138.4375  139.7421  161.6275 N.pl3   1  UNL1       -0.3132
     17 H         137.5501  139.3739  161.4128 H       1  UNL1        0.1485
     18 C         138.9468  140.9477  160.8945 C.3     1  UNL1        0.1368
     19 C         138.9047  142.2967  161.5491 C.ar    1  UNL1        0.1032
     20 N         137.7044  143.1904  161.6506 N.ar    1  UNL1       -0.1492
     21 N         138.1135  144.4348  162.3814 N.ar    1  UNL1       -0.1306
     22 C         139.5668  144.3102  162.7316 C.ar    1  UNL1        0.1648
     23 N         140.5079  145.2292  163.4523 N.ar    1  UNL1       -0.3145
     24 C         141.9381  144.8267  163.6587 C.ar    1  UNL1        0.2018
     25 F         142.8793  145.7458  164.3796 F       1  UNL1       -0.1852
     26 C         142.4271  143.5053  163.1444 C.ar    1  UNL1        0.0479
     27 C         141.4859  142.5862  162.4236 C.ar    1  UNL1        0.0082
     28 C         140.0558  142.9887  162.2172 C.ar    1  UNL1        0.0528
     29 H         140.1869  146.0965  163.7900 H       1  UNL1        0.1695
@<TRIPOS>BOND
     1     7     8    1
     2     8     9   ar
     3     9    10   ar
     4    10    14    1
     5    14    15    3
     6    10    11   ar
     7    11    12   ar
     8    12    13   ar
     9    13     1    1
    10     1     2   ar
    11     2     3   ar
    12     3     4   ar
    13     4     5   ar
    14     5    16    1
    15    16    18    1
    16    18    19    1
    17    19    20   ar
    18    20    21   ar
    19    21    22   ar
    20    22    23   ar
    21    23    24   ar
    22    24    25    1
    23    24    26   ar
    24    26    27   ar
    25    27    28   ar
    26     5     6   ar
    27    13     8   ar
    28     6     1   ar
    29    28    19   ar
    30    28    22    1
    31    16    17    1
    32    23    29    1
@<TRIPOS>MOLECULE
*****
 29 32 0 0 0
SMALL
GASTEIGER

@<TRIPOS>ATOM
      1 C         141.9175  139.0715  165.3514 C.ar    1  UNL1        0.0040
      2 C         141.1412  137.8756  164.8855 C.ar    1  UNL1        0.0208
      3 C         141.4140  137.2841  163.5344 C.ar    1  UNL1        0.1003
      4 N         142.4632  137.8885  162.6490 N.ar    1  UNL1       -0.2294
      5 C         143.2396  139.0844  163.1149 C.ar    1  UNL1        0.1288
      6 C         142.9668  139.6759  164.4660 C.ar    1  UNL1        0.0341
      7 C         139.3865  140.6083  165.8327 C.3     1  UNL1        0.0310
      8 C         140.3791  140.4315  166.9432 C.ar    1  UNL1       -0.0212
      9 C         140.1063  141.0230  168.2944 C.ar    1  UNL1        0.0060
     10 C         141.0991  140.8460  169.4049 C.ar    1  UNL1        0.0681
     11 C         142.3646  140.0776  169.1642 C.ar    1  UNL1        0.0103
     12 C         142.6375  139.4861  167.8130 C.ar    1  UNL1        0.0004
     13 C         141.6447  139.6630  166.7026 C.ar    1  UNL1       -0.0038
     14 C         140.8263  141.4375  170.7561 C.1     1  UNL1        0.1004
     15 N         140.5534  142.0290  172.1073 N.1     1  UNL1       -0.1908
     16 N         144.2888  139.6888  162.2295 N.pl3   1  UNL1       -0.3132
     17 H         145.2122  139.3487  162.2577 H       1  UNL1        0.1485
     18 C         143.9309  140.8115  161.3011 C.3     1  UNL1        0.1368
     19 C         143.7666  142.2033  161.8358 C.ar    1  UNL1        0.1032
     20 N         144.8306  143.2594  161.8871 N.ar    1  UNL1       -0.1492
     21 N         144.2309  144.4922  162.4960 N.ar    1  UNL1       -0.1306
     22 C         142.7964  144.1980  162.8209 C.ar    1  UNL1        0.1648
     23 N         141.7144  145.0354  163.4357 N.ar    1  UNL1       -0.3145
     24 C         140.3454  144.4582  163.6423 C.ar    1  UNL1        0.2018
     25 F         139.2633  145.2957  164.2571 F       1  UNL1       -0.1852
     26 C         140.0585  143.0436  163.2343 C.ar    1  UNL1        0.0479
     27 C         141.1405  142.2062  162.6196 C.ar    1  UNL1        0.0082
     28 C         142.5094  142.7833  162.4129 C.ar    1  UNL1        0.0528
     29 H         141.9027  145.9639  163.7035 H       1  UNL1        0.1695
@<TRIPOS>BOND
     1     7     8    1
     2     8     9   ar
     3     9    10   ar
     4    10    14    1
     5    14    15    3
     6    10    11   ar
     7    11    12   ar
     8    12    13   ar
     9    13     1    1
    10     1     2   ar
    11     2     3   ar
    12     3     4   ar
    13     4     5   ar
    14     5    16    1
    15    16    18    1
    16    18    19    1
    17    19    20   ar
    18    20    21   ar
    19    21    22   ar
    20    22    23   ar
    21    23    24   ar
    22    24    25    1
    23    24    26   ar
    24    26    27   ar
    25    27    28   ar
    26     5     6   ar
    27    13     8   ar
    28     6     1   ar
    29    28    19   ar
    30    28    22    1
    31    16    17    1
    32    23    29    1
@<TRIPOS>MOLECULE
*****
 29 32 0 0 0
SMALL
GASTEIGER

@<TRIPOS>ATOM
      1 C         143.4113  141.9113  165.0068 C.ar    1  UNL1        0.0040
      2 C         144.0792  143.0435  164.2843 C.ar    1  UNL1        0.0208
      3 C         144.8789  142.7740  163.0442 C.ar    1  UNL1        0.1003
      4 N         145.0108  141.3724  162.5266 N.ar    1  UNL1       -0.2294
      5 C         144.3429  140.2402  163.2491 C.ar    1  UNL1        0.1288
      6 C         143.5432  140.5096  164.4891 C.ar    1  UNL1        0.0341
      7 C         140.4869  142.5465  164.7970 C.3     1  UNL1        0.0310
      8 C         141.1493  142.4983  166.1419 C.ar    1  UNL1       -0.0212
      9 C         140.3495  142.7677  167.3820 C.ar    1  UNL1        0.0060
     10 C         141.0120  142.7195  168.7270 C.ar    1  UNL1        0.0681
     11 C         142.4743  142.4019  168.8318 C.ar    1  UNL1        0.0103
     12 C         143.2740  142.1325  167.5918 C.ar    1  UNL1        0.0004
     13 C         142.6115  142.1807  166.2469 C.ar    1  UNL1       -0.0038
     14 C         140.2123  142.9889  169.9671 C.1     1  UNL1        0.1004
     15 N         139.4126  143.2583  171.2073 N.1     1  UNL1       -0.1908
     16 N         144.4748  138.8385  162.7314 N.pl3   1  UNL1       -0.3132
     17 H         145.1939  138.2556  163.0667 H       1  UNL1        0.1485
     18 C         143.5111  138.3250  161.7029 C.3     1  UNL1        0.1368
     19 C         142.0351  138.3807  161.9643 C.ar    1  UNL1        0.1032
     20 N         141.1881  137.2556  162.4809 N.ar    1  UNL1       -0.1492
     21 N         139.7765  137.7508  162.5908 N.ar    1  UNL1       -0.1306
     22 C         139.7510  139.1819  162.1421 C.ar    1  UNL1        0.1648
     23 N         138.6371  140.1809  162.0361 N.ar    1  UNL1       -0.3145
     24 C         138.9191  141.5691  161.5429 C.ar    1  UNL1        0.2018
     25 F         137.8052  142.5681  161.4369 F       1  UNL1       -0.1852
     26 C         140.3150  141.9584  161.1557 C.ar    1  UNL1        0.0479
     27 C         141.4289  140.9594  161.2617 C.ar    1  UNL1        0.0082
     28 C         141.1469  139.5712  161.7549 C.ar    1  UNL1        0.0528
     29 H         137.7210  139.9254  162.2903 H       1  UNL1        0.1695
@<TRIPOS>BOND
     1     7     8    1
     2     8     9   ar
     3     9    10   ar
     4    10    14    1
     5    14    15    3
     6    10    11   ar
     7    11    12   ar
     8    12    13   ar
     9    13     1    1
    10     1     2   ar
    11     2     3   ar
    12     3     4   ar
    13     4     5   ar
    14     5    16    1
    15    16    18    1
    16    18    19    1
    17    19    20   ar
    18    20    21   ar
    19    21    22   ar
    20    22    23   ar
    21    23    24   ar
    22    24    25    1
    23    24    26   ar
    24    26    27   ar
    25    27    28   ar
    26     5     6   ar
    27    13     8   ar
    28     6     1   ar
    29    28    19   ar
    30    28    22    1
    31    16    17    1
    32    23    29    1
@<TRIPOS>MOLECULE
*****
 29 32 0 0 0
SMALL
GASTEIGER

@<TRIPOS>ATOM
      1 C         142.8966  139.7017  165.4036 C.ar    1  UNL1        0.0040
      2 C         144.2246  140.1410  164.8621 C.ar    1  UNL1        0.0208
      3 C         144.6848  139.6559  163.5194 C.ar    1  UNL1        0.1003
      4 N         143.8169  138.7315  162.7181 N.ar    1  UNL1       -0.2294
      5 C         142.4888  138.2921  163.2596 C.ar    1  UNL1        0.1288
      6 C         142.0287  138.7773  164.6023 C.ar    1  UNL1        0.0341
      7 C         141.4402  142.3141  165.6362 C.3     1  UNL1        0.0310
      8 C         141.7082  141.4931  166.8626 C.ar    1  UNL1       -0.0212
      9 C         141.2480  141.9782  168.2053 C.ar    1  UNL1        0.0060
     10 C         141.5161  141.1571  169.4318 C.ar    1  UNL1        0.0681
     11 C         142.2443  139.8509  169.3154 C.ar    1  UNL1        0.0103
     12 C         142.7045  139.3658  167.9727 C.ar    1  UNL1        0.0004
     13 C         142.4364  140.1869  166.7463 C.ar    1  UNL1       -0.0038
     14 C         141.0559  141.6422  170.7745 C.1     1  UNL1        0.1004
     15 N         140.5957  142.1274  172.1172 N.1     1  UNL1       -0.1908
     16 N         141.6209  137.3677  162.4583 N.pl3   1  UNL1       -0.3132
     17 H         141.8744  136.4222  162.3530 H       1  UNL1        0.1485
     18 C         140.3666  137.8837  161.8174 C.3     1  UNL1        0.1368
     19 C         140.1589  139.3607  161.6578 C.ar    1  UNL1        0.1032
     20 N         140.6589  140.2037  160.5223 N.ar    1  UNL1       -0.1492
     21 N         140.2237  141.6179  160.7683 N.ar    1  UNL1       -0.1306
     22 C         139.4548  141.6490  162.0559 C.ar    1  UNL1        0.1648
     23 N         138.7860  142.7673  162.7987 N.ar    1  UNL1       -0.3145
     24 C         138.0770  142.4906  164.0913 C.ar    1  UNL1        0.2018
     25 F         137.4081  143.6090  164.8343 F       1  UNL1       -0.1852
     26 C         138.0370  141.0955  164.6410 C.ar    1  UNL1        0.0479
     27 C         138.7058  139.9772  163.8982 C.ar    1  UNL1        0.0082
     28 C         139.4147  140.2539  162.6056 C.ar    1  UNL1        0.0528
     29 H         138.8122  143.6829  162.4379 H       1  UNL1        0.1695
@<TRIPOS>BOND
     1     7     8    1
     2     8     9   ar
     3     9    10   ar
     4    10    14    1
     5    14    15    3
     6    10    11   ar
     7    11    12   ar
     8    12    13   ar
     9    13     1    1
    10     1     2   ar
    11     2     3   ar
    12     3     4   ar
    13     4     5   ar
    14     5    16    1
    15    16    18    1
    16    18    19    1
    17    19    20   ar
    18    20    21   ar
    19    21    22   ar
    20    22    23   ar
    21    23    24   ar
    22    24    25    1
    23    24    26   ar
    24    26    27   ar
    25    27    28   ar
    26     5     6   ar
    27    13     8   ar
    28     6     1   ar
    29    28    19   ar
    30    28    22    1
    31    16    17    1
    32    23    29    1
