@<TRIPOS>MOLECULE
*****
 31 34 0 0 0
SMALL
GASTEIGER

@<TRIPOS>ATOM
      1 C         140.0628  144.8445  157.8943 C.ar    1  UNL1        0.1535
      2 C         141.0609  145.5113  158.7938 C.ar    1  UNL1        0.0377
      3 C         141.0718  145.2020  160.2615 C.ar    1  UNL1        0.0239
      4 C         140.0848  144.2259  160.8296 C.ar    1  UNL1        0.1059
      5 N         139.0867  143.5590  159.9301 N.ar    1  UNL1       -0.1467
      6 N         139.0757  143.8684  158.4624 N.ar    1  UNL1       -0.1329
      7 C         140.0958  143.9165  162.2974 C.ar    1  UNL1        0.0532
      8 C         141.3441  143.3939  162.9444 C.ar    1  UNL1        0.0061
      9 C         141.3551  143.0846  164.4122 C.ar    1  UNL1        0.0179
     10 C         142.6034  142.5620  165.0591 C.ar    1  UNL1        0.0031
     11 C         142.6144  142.2527  166.5268 C.ar    1  UNL1        0.0207
     12 C         141.3771  142.4661  167.3476 C.ar    1  UNL1        0.0988
     13 N         140.1288  142.9887  166.7006 N.ar    1  UNL1       -0.2437
     14 C         140.1178  143.2980  165.2329 C.ar    1  UNL1        0.0843
     15 C         138.8695  143.8206  164.5858 C.ar    1  UNL1        0.0557
     16 C         138.8585  144.1299  163.1181 C.ar    1  UNL1        0.1366
     17 O         137.6102  144.6525  162.4711 O.3     1  UNL1       -0.5054
     18 H         136.8373  144.7858  162.9837 H       1  UNL1        0.2922
     19 C         140.2747  144.0575  155.4273 C.3     1  UNL1        0.1135
     20 N         140.0518  145.1538  156.4265 N.pl3   1  UNL1       -0.2916
     21 C         139.8177  146.5594  155.9580 C.3     1  UNL1        0.0768
     22 C         140.3047  146.9903  154.6063 C.3     1  UNL1        0.0342
     23 C         140.0707  148.3959  154.1378 C.3     1  UNL1        0.0435
     24 C         140.0893  149.6094  153.2562 C.3     1  UNL1        0.0158
     25 C         140.7981  147.8426  152.9484 C.3     1  UNL1        0.0158
     26 N         139.3497  149.3707  155.0210 N.3     1  UNL1       -0.3015
     27 C         138.8627  148.9398  156.3728 C.3     1  UNL1        0.0435
     28 C         138.2166  149.0049  157.7249 C.3     1  UNL1        0.0158
     29 C         138.4043  150.3680  156.3739 C.3     1  UNL1        0.0158
     30 C         139.0968  147.5342  156.8413 C.3     1  UNL1        0.0342
     31 H         138.5320  149.6898  154.5014 H       1  UNL1        0.1231
@<TRIPOS>BOND
     1    19    20    1
     2    20     1    1
     3     1     2   ar
     4     2     3   ar
     5     3     4   ar
     6     4     7    1
     7     7     8   ar
     8     8     9   ar
     9     9    10   ar
    10    10    11   ar
    11    11    12   ar
    12    12    13   ar
    13    13    14   ar
    14    14    15   ar
    15    15    16   ar
    16    16    17    1
    17     4     5   ar
    18     5     6   ar
    19    20    21    1
    20    21    22    1
    21    22    23    1
    22    23    24    1
    23    23    25    1
    24    23    26    1
    25    26    27    1
    26    27    28    1
    27    27    29    1
    28    27    30    1
    29     6     1   ar
    30    30    21    1
    31    16     7   ar
    32    14     9   ar
    33    17    18    1
    34    26    31    1
@<TRIPOS>MOLECULE
*****
 31 34 0 0 0
SMALL
GASTEIGER

@<TRIPOS>ATOM
      1 C         140.2186  144.5882  162.2776 C.ar    1  UNL1        0.1535
      2 C         141.2570  144.8040  163.3382 C.ar    1  UNL1        0.0377
      3 C         141.2193  143.9944  164.6004 C.ar    1  UNL1        0.0239
      4 C         140.1431  142.9690  164.8019 C.ar    1  UNL1        0.1059
      5 N         139.1047  142.7533  163.7412 N.ar    1  UNL1       -0.1467
      6 N         139.1424  143.5629  162.4790 N.ar    1  UNL1       -0.1329
      7 C         140.1054  142.1594  166.0641 C.ar    1  UNL1        0.0532
      8 C         140.5591  142.7667  167.3585 C.ar    1  UNL1        0.0061
      9 C         140.5214  141.9571  168.6207 C.ar    1  UNL1        0.0179
     10 C         140.9750  142.5644  169.9150 C.ar    1  UNL1        0.0031
     11 C         140.9373  141.7548  171.1772 C.ar    1  UNL1        0.0207
     12 C         140.4459  140.3379  171.1450 C.ar    1  UNL1        0.0988
     13 N         139.9923  139.7306  169.8507 N.ar    1  UNL1       -0.2437
     14 C         140.0300  140.5402  168.5885 C.ar    1  UNL1        0.0843
     15 C         139.5763  139.9330  167.2941 C.ar    1  UNL1        0.0557
     16 C         139.6140  140.7426  166.0319 C.ar    1  UNL1        0.1366
     17 O         139.1603  140.1353  164.7375 O.3     1  UNL1       -0.5054
     18 H         138.8534  139.2503  164.7174 H       1  UNL1        0.2922
     19 C         139.4251  146.6407  160.8964 C.3     1  UNL1        0.1135
     20 N         140.2563  145.3978  161.0153 N.pl3   1  UNL1       -0.2916
     21 C         141.1252  144.9644  159.8720 C.3     1  UNL1        0.0768
     22 C         142.1952  143.9362  160.0910 C.3     1  UNL1        0.0342
     23 C         143.0641  143.5028  158.9477 C.3     1  UNL1        0.0435
     24 C         144.1316  142.7751  158.1856 C.3     1  UNL1        0.0158
     25 C         143.6358  142.6552  160.0453 C.3     1  UNL1        0.0158
     26 N         142.8631  144.0977  157.5854 N.3     1  UNL1       -0.3015
     27 C         141.7932  145.1260  157.3664 C.3     1  UNL1        0.0435
     28 C         140.9197  146.1241  156.6659 C.3     1  UNL1        0.0158
     29 C         142.3588  145.0392  155.9799 C.3     1  UNL1        0.0158
     30 C         140.9242  145.5594  158.5097 C.3     1  UNL1        0.0342
     31 H         142.6613  143.3234  156.9529 H       1  UNL1        0.1231
@<TRIPOS>BOND
     1    19    20    1
     2    20     1    1
     3     1     2   ar
     4     2     3   ar
     5     3     4   ar
     6     4     7    1
     7     7     8   ar
     8     8     9   ar
     9     9    10   ar
    10    10    11   ar
    11    11    12   ar
    12    12    13   ar
    13    13    14   ar
    14    14    15   ar
    15    15    16   ar
    16    16    17    1
    17     4     5   ar
    18     5     6   ar
    19    20    21    1
    20    21    22    1
    21    22    23    1
    22    23    24    1
    23    23    25    1
    24    23    26    1
    25    26    27    1
    26    27    28    1
    27    27    29    1
    28    27    30    1
    29     6     1   ar
    30    30    21    1
    31    16     7   ar
    32    14     9   ar
    33    17    18    1
    34    26    31    1
@<TRIPOS>MOLECULE
*****
 31 34 0 0 0
SMALL
GASTEIGER

@<TRIPOS>ATOM
      1 C         142.1454  137.9909  158.8930 C.ar    1  UNL1        0.1535
      2 C         143.0366  137.7819  160.0813 C.ar    1  UNL1        0.0377
      3 C         142.5035  138.0003  161.4662 C.ar    1  UNL1        0.0239
      4 C         141.0793  138.4277  161.6629 C.ar    1  UNL1        0.1059
      5 N         140.1880  138.6368  160.4747 N.ar    1  UNL1       -0.1467
      6 N         140.7211  138.4184  159.0897 N.ar    1  UNL1       -0.1329
      7 C         140.5462  138.6461  163.0479 C.ar    1  UNL1        0.0532
      8 C         141.3805  139.3619  164.0684 C.ar    1  UNL1        0.0061
      9 C         140.8475  139.5803  165.4535 C.ar    1  UNL1        0.0179
     10 C         141.6818  140.2962  166.4740 C.ar    1  UNL1        0.0031
     11 C         141.1487  140.5145  167.8589 C.ar    1  UNL1        0.0207
     12 C         139.7814  140.0171  168.2234 C.ar    1  UNL1        0.0988
     13 N         138.9470  139.3012  167.2029 N.ar    1  UNL1       -0.2437
     14 C         139.4801  139.0829  165.8179 C.ar    1  UNL1        0.0843
     15 C         138.6458  138.3670  164.7973 C.ar    1  UNL1        0.0557
     16 C         139.1788  138.1487  163.4124 C.ar    1  UNL1        0.1366
     17 O         138.3445  137.4328  162.3918 O.3     1  UNL1       -0.5054
     18 H         137.4903  137.1221  162.6194 H       1  UNL1        0.2922
     19 C         143.3181  138.9065  156.7631 C.3     1  UNL1        0.1135
     20 N         142.6784  137.7726  157.5080 N.pl3   1  UNL1       -0.2916
     21 C         142.5717  136.4202  156.8679 C.3     1  UNL1        0.0768
     22 C         143.2841  135.2463  157.4716 C.3     1  UNL1        0.0342
     23 C         143.1774  133.8940  156.8315 C.3     1  UNL1        0.0435
     24 C         143.3795  132.4267  156.5949 C.3     1  UNL1        0.0158
     25 C         144.0667  133.5629  157.9932 C.3     1  UNL1        0.0158
     26 N         142.3582  133.7154  155.5877 N.3     1  UNL1       -0.3015
     27 C         141.6458  134.8893  154.9839 C.3     1  UNL1        0.0435
     28 C         140.7935  135.6901  154.0446 C.3     1  UNL1        0.0158
     29 C         141.2430  133.8151  154.0177 C.3     1  UNL1        0.0158
     30 C         141.7525  136.2417  155.6240 C.3     1  UNL1        0.0342
     31 H         141.6462  133.0171  155.8018 H       1  UNL1        0.1231
@<TRIPOS>BOND
     1    19    20    1
     2    20     1    1
     3     1     2   ar
     4     2     3   ar
     5     3     4   ar
     6     4     7    1
     7     7     8   ar
     8     8     9   ar
     9     9    10   ar
    10    10    11   ar
    11    11    12   ar
    12    12    13   ar
    13    13    14   ar
    14    14    15   ar
    15    15    16   ar
    16    16    17    1
    17     4     5   ar
    18     5     6   ar
    19    20    21    1
    20    21    22    1
    21    22    23    1
    22    23    24    1
    23    23    25    1
    24    23    26    1
    25    26    27    1
    26    27    28    1
    27    27    29    1
    28    27    30    1
    29     6     1   ar
    30    30    21    1
    31    16     7   ar
    32    14     9   ar
    33    17    18    1
    34    26    31    1
@<TRIPOS>MOLECULE
*****
 31 34 0 0 0
SMALL
GASTEIGER

@<TRIPOS>ATOM
      1 C         141.3823  142.0008  164.1574 C.ar    1  UNL1        0.1535
      2 C         141.7922  141.2354  162.9342 C.ar    1  UNL1        0.0377
      3 C         141.4071  141.7345  161.5732 C.ar    1  UNL1        0.0239
      4 C         140.6120  142.9990  161.4353 C.ar    1  UNL1        0.1059
      5 N         140.2021  143.7644  162.6584 N.ar    1  UNL1       -0.1467
      6 N         140.5873  143.2653  164.0195 N.ar    1  UNL1       -0.1329
      7 C         140.2269  143.4981  160.0741 C.ar    1  UNL1        0.0532
      8 C         139.2227  142.7429  159.2548 C.ar    1  UNL1        0.0061
      9 C         138.8376  143.2420  157.8937 C.ar    1  UNL1        0.0179
     10 C         137.8334  142.4868  157.0744 C.ar    1  UNL1        0.0031
     11 C         137.4483  142.9859  155.7133 C.ar    1  UNL1        0.0207
     12 C         138.0674  144.2402  155.1715 C.ar    1  UNL1        0.0988
     13 N         139.0716  144.9953  155.9908 N.ar    1  UNL1       -0.2437
     14 C         139.4567  144.4962  157.3519 C.ar    1  UNL1        0.0843
     15 C         140.4609  145.2514  158.1713 C.ar    1  UNL1        0.0557
     16 C         140.8460  144.7523  159.5323 C.ar    1  UNL1        0.1366
     17 O         141.8502  145.5075  160.3517 O.3     1  UNL1       -0.5054
     18 H         142.2370  146.2910  160.0133 H       1  UNL1        0.2922
     19 C         143.1776  141.6607  166.0043 C.3     1  UNL1        0.1135
     20 N         141.7674  141.5017  165.5185 N.pl3   1  UNL1       -0.2916
     21 C         140.7423  140.8437  166.3938 C.3     1  UNL1        0.0768
     22 C         140.6548  141.2038  167.8473 C.3     1  UNL1        0.0342
     23 C         139.6297  140.5458  168.7226 C.3     1  UNL1        0.0435
     24 C         138.8342  140.1997  169.9463 C.3     1  UNL1        0.0158
     25 C         140.2910  141.4437  169.7258 C.3     1  UNL1        0.0158
     26 N         138.6920  139.5277  168.1444 N.3     1  UNL1       -0.3015
     27 C         138.7795  139.1676  166.6909 C.3     1  UNL1        0.0435
     28 C         138.4742  138.4983  165.3837 C.3     1  UNL1        0.0158
     29 C         137.6484  138.2772  167.1122 C.3     1  UNL1        0.0158
     30 C         139.8046  139.8256  165.8156 C.3     1  UNL1        0.0342
     31 H         137.7461  139.8735  168.3057 H       1  UNL1        0.1231
@<TRIPOS>BOND
     1    19    20    1
     2    20     1    1
     3     1     2   ar
     4     2     3   ar
     5     3     4   ar
     6     4     7    1
     7     7     8   ar
     8     8     9   ar
     9     9    10   ar
    10    10    11   ar
    11    11    12   ar
    12    12    13   ar
    13    13    14   ar
    14    14    15   ar
    15    15    16   ar
    16    16    17    1
    17     4     5   ar
    18     5     6   ar
    19    20    21    1
    20    21    22    1
    21    22    23    1
    22    23    24    1
    23    23    25    1
    24    23    26    1
    25    26    27    1
    26    27    28    1
    27    27    29    1
    28    27    30    1
    29     6     1   ar
    30    30    21    1
    31    16     7   ar
    32    14     9   ar
    33    17    18    1
    34    26    31    1
@<TRIPOS>MOLECULE
*****
 31 34 0 0 0
SMALL
GASTEIGER

@<TRIPOS>ATOM
      1 C         141.4616  141.9852  163.9386 C.ar    1  UNL1        0.1535
      2 C         141.6530  141.1096  162.7358 C.ar    1  UNL1        0.0377
      3 C         141.2420  141.5991  161.3788 C.ar    1  UNL1        0.0239
      4 C         140.6397  142.9641  161.2245 C.ar    1  UNL1        0.1059
      5 N         140.4483  143.8397  162.4273 N.ar    1  UNL1       -0.1467
      6 N         140.8592  143.3503  163.7843 N.ar    1  UNL1       -0.1329
      7 C         140.2287  143.4536  159.8674 C.ar    1  UNL1        0.0532
      8 C         139.2167  142.6871  159.0685 C.ar    1  UNL1        0.0061
      9 C         138.8058  143.1765  157.7114 C.ar    1  UNL1        0.0179
     10 C         137.7938  142.4101  156.9124 C.ar    1  UNL1        0.0031
     11 C         137.3829  142.8995  155.5554 C.ar    1  UNL1        0.0207
     12 C         137.9840  144.1554  154.9973 C.ar    1  UNL1        0.0988
     13 N         138.9959  144.9219  155.7963 N.ar    1  UNL1       -0.2437
     14 C         139.4068  144.4324  157.1533 C.ar    1  UNL1        0.0843
     15 C         140.4189  145.1989  157.9524 C.ar    1  UNL1        0.0557
     16 C         140.8298  144.7095  159.3094 C.ar    1  UNL1        0.1366
     17 O         141.8418  145.4759  160.1084 O.3     1  UNL1       -0.5054
     18 H         142.2173  146.2604  159.7598 H       1  UNL1        0.2922
     19 C         143.3009  141.6190  165.7365 C.3     1  UNL1        0.1135
     20 N         141.8725  141.4958  165.2957 N.pl3   1  UNL1       -0.2916
     21 C         140.8550  140.8832  166.2118 C.3     1  UNL1        0.0768
     22 C         139.8802  139.8737  165.6820 C.3     1  UNL1        0.0342
     23 C         138.8626  139.2611  166.5982 C.3     1  UNL1        0.0435
     24 C         137.7224  138.4077  167.0690 C.3     1  UNL1        0.0158
     25 C         138.5093  138.5679  165.3157 C.3     1  UNL1        0.0158
     26 N         138.8200  139.6579  168.0441 N.3     1  UNL1       -0.3015
     27 C         139.7948  140.6674  168.5739 C.3     1  UNL1        0.0435
     28 C         140.5016  141.5733  169.5382 C.3     1  UNL1        0.0158
     29 C         139.0228  140.3693  169.8249 C.3     1  UNL1        0.0158
     30 C         140.8124  141.2800  167.6578 C.3     1  UNL1        0.0342
     31 H         138.9545  138.8052  168.5875 H       1  UNL1        0.1231
@<TRIPOS>BOND
     1    19    20    1
     2    20     1    1
     3     1     2   ar
     4     2     3   ar
     5     3     4   ar
     6     4     7    1
     7     7     8   ar
     8     8     9   ar
     9     9    10   ar
    10    10    11   ar
    11    11    12   ar
    12    12    13   ar
    13    13    14   ar
    14    14    15   ar
    15    15    16   ar
    16    16    17    1
    17     4     5   ar
    18     5     6   ar
    19    20    21    1
    20    21    22    1
    21    22    23    1
    22    23    24    1
    23    23    25    1
    24    23    26    1
    25    26    27    1
    26    27    28    1
    27    27    29    1
    28    27    30    1
    29     6     1   ar
    30    30    21    1
    31    16     7   ar
    32    14     9   ar
    33    17    18    1
    34    26    31    1
@<TRIPOS>MOLECULE
*****
 31 34 0 0 0
SMALL
GASTEIGER

@<TRIPOS>ATOM
      1 C         142.5921  137.2537  157.4461 C.ar    1  UNL1        0.1535
      2 C         141.2237  137.8441  157.2769 C.ar    1  UNL1        0.0377
      3 C         140.5171  138.4489  158.4537 C.ar    1  UNL1        0.0239
      4 C         141.1790  138.4634  159.7996 C.ar    1  UNL1        0.1059
      5 N         142.5475  137.8730  159.9688 N.ar    1  UNL1       -0.1467
      6 N         143.2540  137.2682  158.7920 N.ar    1  UNL1       -0.1329
      7 C         140.4724  139.0683  160.9765 C.ar    1  UNL1        0.0532
      8 C         139.7746  140.3885  160.8349 C.ar    1  UNL1        0.0061
      9 C         139.0680  140.9934  162.0117 C.ar    1  UNL1        0.0179
     10 C         138.3702  142.3137  161.8701 C.ar    1  UNL1        0.0031
     11 C         137.6636  142.9185  163.0469 C.ar    1  UNL1        0.0207
     12 C         137.6548  142.2031  164.3652 C.ar    1  UNL1        0.0988
     13 N         138.3526  140.8829  164.5068 N.ar    1  UNL1       -0.2437
     14 C         139.0591  140.2780  163.3301 C.ar    1  UNL1        0.0843
     15 C         139.7570  138.9577  163.4716 C.ar    1  UNL1        0.0557
     16 C         140.4635  138.3529  162.2948 C.ar    1  UNL1        0.1366
     17 O         141.1614  137.0326  162.4364 O.3     1  UNL1       -0.5054
     18 H         141.1558  136.5857  163.2599 H       1  UNL1        0.2922
     19 C         144.1009  137.5189  155.3476 C.3     1  UNL1        0.1135
     20 N         143.2988  136.6488  156.2692 N.pl3   1  UNL1       -0.2916
     21 C         143.2033  135.1737  156.0141 C.3     1  UNL1        0.0768
     22 C         143.9225  134.2095  156.9102 C.3     1  UNL1        0.0342
     23 C         143.8270  132.7344  156.6551 C.3     1  UNL1        0.0435
     24 C         144.0401  131.2588  156.8196 C.3     1  UNL1        0.0158
     25 C         144.7157  132.7328  157.8634 C.3     1  UNL1        0.0158
     26 N         143.0123  132.2236  155.5039 N.3     1  UNL1       -0.3015
     27 C         142.2930  133.1878  154.6078 C.3     1  UNL1        0.0435
     28 C         141.4374  133.7018  153.4881 C.3     1  UNL1        0.0158
     29 C         141.9004  131.8913  153.9638 C.3     1  UNL1        0.0158
     30 C         142.3885  134.6629  154.8629 C.3     1  UNL1        0.0342
     31 H         142.3047  131.6026  155.8966 H       1  UNL1        0.1231
@<TRIPOS>BOND
     1    19    20    1
     2    20     1    1
     3     1     2   ar
     4     2     3   ar
     5     3     4   ar
     6     4     7    1
     7     7     8   ar
     8     8     9   ar
     9     9    10   ar
    10    10    11   ar
    11    11    12   ar
    12    12    13   ar
    13    13    14   ar
    14    14    15   ar
    15    15    16   ar
    16    16    17    1
    17     4     5   ar
    18     5     6   ar
    19    20    21    1
    20    21    22    1
    21    22    23    1
    22    23    24    1
    23    23    25    1
    24    23    26    1
    25    26    27    1
    26    27    28    1
    27    27    29    1
    28    27    30    1
    29     6     1   ar
    30    30    21    1
    31    16     7   ar
    32    14     9   ar
    33    17    18    1
    34    26    31    1
@<TRIPOS>MOLECULE
*****
 31 34 0 0 0
SMALL
GASTEIGER

@<TRIPOS>ATOM
      1 C         142.5589  137.6017  157.2397 C.ar    1  UNL1        0.1535
      2 C         141.0782  137.8394  157.2094 C.ar    1  UNL1        0.0377
      3 C         140.3804  138.3794  158.4224 C.ar    1  UNL1        0.0239
      4 C         141.1633  138.6818  159.6657 C.ar    1  UNL1        0.1059
      5 N         142.6440  138.4440  159.6959 N.ar    1  UNL1       -0.1467
      6 N         143.3418  137.9040  158.4830 N.ar    1  UNL1       -0.1329
      7 C         140.4654  139.2218  160.8787 C.ar    1  UNL1        0.0532
      8 C         139.7508  140.5388  160.8087 C.ar    1  UNL1        0.0061
      9 C         139.0529  141.0788  162.0217 C.ar    1  UNL1        0.0179
     10 C         138.3383  142.3958  161.9517 C.ar    1  UNL1        0.0031
     11 C         137.6405  142.9358  163.1647 C.ar    1  UNL1        0.0207
     12 C         137.6572  142.1588  164.4477 C.ar    1  UNL1        0.0988
     13 N         138.3718  140.8419  164.5177 N.ar    1  UNL1       -0.2437
     14 C         139.0697  140.3019  163.3047 C.ar    1  UNL1        0.0843
     15 C         139.7843  138.9849  163.3747 C.ar    1  UNL1        0.0557
     16 C         140.4822  138.4449  162.1617 C.ar    1  UNL1        0.1366
     17 O         141.1968  137.1279  162.2317 O.3     1  UNL1       -0.5054
     18 H         141.2073  136.6425  163.0331 H       1  UNL1        0.2922
     19 C         143.9998  137.9907  155.1131 C.3     1  UNL1        0.1135
     20 N         143.2568  137.0616  156.0267 N.pl3   1  UNL1       -0.2916
     21 C         143.2116  135.5925  155.7273 C.3     1  UNL1        0.0768
     22 C         142.5791  135.1049  154.4577 C.3     1  UNL1        0.0342
     23 C         142.5339  133.6358  154.1583 C.3     1  UNL1        0.0435
     24 C         142.2505  132.3528  153.4347 C.3     1  UNL1        0.0158
     25 C         141.8481  134.1717  152.9367 C.3     1  UNL1        0.0158
     26 N         143.1212  132.6542  155.1286 N.3     1  UNL1       -0.3015
     27 C         143.7538  133.1418  156.3984 C.3     1  UNL1        0.0435
     28 C         144.4553  133.1161  157.7240 C.3     1  UNL1        0.0158
     29 C         143.9522  131.6638  156.5594 C.3     1  UNL1        0.0158
     30 C         143.7990  134.6109  156.6977 C.3     1  UNL1        0.0342
     31 H         143.8384  132.1339  154.6233 H       1  UNL1        0.1231
@<TRIPOS>BOND
     1    19    20    1
     2    20     1    1
     3     1     2   ar
     4     2     3   ar
     5     3     4   ar
     6     4     7    1
     7     7     8   ar
     8     8     9   ar
     9     9    10   ar
    10    10    11   ar
    11    11    12   ar
    12    12    13   ar
    13    13    14   ar
    14    14    15   ar
    15    15    16   ar
    16    16    17    1
    17     4     5   ar
    18     5     6   ar
    19    20    21    1
    20    21    22    1
    21    22    23    1
    22    23    24    1
    23    23    25    1
    24    23    26    1
    25    26    27    1
    26    27    28    1
    27    27    29    1
    28    27    30    1
    29     6     1   ar
    30    30    21    1
    31    16     7   ar
    32    14     9   ar
    33    17    18    1
    34    26    31    1
@<TRIPOS>MOLECULE
*****
 31 34 0 0 0
SMALL
GASTEIGER

@<TRIPOS>ATOM
      1 C         142.0145  139.8266  163.3875 C.ar    1  UNL1        0.1535
      2 C         142.6253  138.5190  162.9790 C.ar    1  UNL1        0.0377
      3 C         142.4387  138.0083  161.5810 C.ar    1  UNL1        0.0239
      4 C         141.6413  138.8053  160.5916 C.ar    1  UNL1        0.1059
      5 N         141.0306  140.1130  161.0001 N.ar    1  UNL1       -0.1467
      6 N         141.2172  140.6237  162.3980 N.ar    1  UNL1       -0.1329
      7 C         141.4548  138.2946  159.1935 C.ar    1  UNL1        0.0532
      8 C         142.5795  137.5877  158.4969 C.ar    1  UNL1        0.0061
      9 C         142.3929  137.0770  157.0989 C.ar    1  UNL1        0.0179
     10 C         143.5176  136.3702  156.4023 C.ar    1  UNL1        0.0031
     11 C         143.3310  135.8595  155.0043 C.ar    1  UNL1        0.0207
     12 C         142.0197  136.0557  154.3030 C.ar    1  UNL1        0.0988
     13 N         140.8950  136.7625  154.9996 N.ar    1  UNL1       -0.2437
     14 C         141.0816  137.2732  156.3975 C.ar    1  UNL1        0.0843
     15 C         139.9568  137.9801  157.0942 C.ar    1  UNL1        0.0557
     16 C         140.1434  138.4908  158.4922 C.ar    1  UNL1        0.1366
     17 O         139.0187  139.1977  159.1888 O.3     1  UNL1       -0.5054
     18 H         138.1995  139.3202  158.7507 H       1  UNL1        0.2922
     19 C         143.4508  141.0817  165.1515 C.3     1  UNL1        0.1135
     20 N         142.2011  140.3374  164.7855 N.pl3   1  UNL1       -0.2916
     21 C         141.1378  140.1037  165.8175 C.3     1  UNL1        0.0768
     22 C         139.9770  139.2055  165.5083 C.3     1  UNL1        0.0342
     23 C         138.9138  138.9718  166.5402 C.3     1  UNL1        0.0435
     24 C         137.6662  138.4437  167.1840 C.3     1  UNL1        0.0158
     25 C         138.3829  138.1239  165.4226 C.3     1  UNL1        0.0158
     26 N         139.0114  139.6364  167.8814 N.3     1  UNL1       -0.3015
     27 C         140.1722  140.5346  168.1907 C.3     1  UNL1        0.0435
     28 C         141.0724  141.4638  168.9499 C.3     1  UNL1        0.0158
     29 C         139.4216  140.6237  169.4863 C.3     1  UNL1        0.0158
     30 C         141.2355  140.7683  167.1587 C.3     1  UNL1        0.0342
     31 H         139.0210  138.8921  168.5788 H       1  UNL1        0.1231
@<TRIPOS>BOND
     1    19    20    1
     2    20     1    1
     3     1     2   ar
     4     2     3   ar
     5     3     4   ar
     6     4     7    1
     7     7     8   ar
     8     8     9   ar
     9     9    10   ar
    10    10    11   ar
    11    11    12   ar
    12    12    13   ar
    13    13    14   ar
    14    14    15   ar
    15    15    16   ar
    16    16    17    1
    17     4     5   ar
    18     5     6   ar
    19    20    21    1
    20    21    22    1
    21    22    23    1
    22    23    24    1
    23    23    25    1
    24    23    26    1
    25    26    27    1
    26    27    28    1
    27    27    29    1
    28    27    30    1
    29     6     1   ar
    30    30    21    1
    31    16     7   ar
    32    14     9   ar
    33    17    18    1
    34    26    31    1
@<TRIPOS>MOLECULE
*****
 31 34 0 0 0
SMALL
GASTEIGER

@<TRIPOS>ATOM
      1 C         141.9613  137.8434  157.1088 C.ar    1  UNL1        0.1535
      2 C         140.9976  138.1383  158.2198 C.ar    1  UNL1        0.0377
      3 C         141.4282  138.9843  159.3812 C.ar    1  UNL1        0.0239
      4 C         142.8224  139.5353  159.4316 C.ar    1  UNL1        0.1059
      5 N         143.7860  139.2404  158.3206 N.ar    1  UNL1       -0.1467
      6 N         143.3555  138.3945  157.1592 N.ar    1  UNL1       -0.1329
      7 C         143.2529  140.3813  160.5931 C.ar    1  UNL1        0.0532
      8 C         142.7365  141.7827  160.7325 C.ar    1  UNL1        0.0061
      9 C         143.1670  142.6286  161.8940 C.ar    1  UNL1        0.0179
     10 C         142.6505  144.0300  162.0334 C.ar    1  UNL1        0.0031
     11 C         143.0811  144.8759  163.1948 C.ar    1  UNL1        0.0207
     12 C         144.0281  144.3205  164.2169 C.ar    1  UNL1        0.0988
     13 N         144.5446  142.9191  164.0775 N.ar    1  UNL1       -0.2437
     14 C         144.1140  142.0732  162.9161 C.ar    1  UNL1        0.0843
     15 C         144.6305  140.6718  162.7767 C.ar    1  UNL1        0.0557
     16 C         144.1999  139.8259  161.6152 C.ar    1  UNL1        0.1366
     17 O         144.7164  138.4245  161.4758 O.3     1  UNL1       -0.5054
     18 H         145.3080  138.0775  162.1143 H       1  UNL1        0.2922
     19 C         140.5239  137.5243  154.9681 C.3     1  UNL1        0.1135
     20 N         141.5307  136.9975  155.9473 N.pl3   1  UNL1       -0.2916
     21 C         142.1070  135.6246  155.7650 C.3     1  UNL1        0.0768
     22 C         142.8690  134.9766  156.8827 C.3     1  UNL1        0.0342
     23 C         143.4454  133.6038  156.7004 C.3     1  UNL1        0.0435
     24 C         144.1740  132.3290  157.0065 C.3     1  UNL1        0.0158
     25 C         143.8841  133.8859  158.1068 C.3     1  UNL1        0.0158
     26 N         143.2597  132.8790  155.4004 N.3     1  UNL1       -0.3015
     27 C         142.4976  133.5270  154.2826 C.3     1  UNL1        0.0435
     28 C         141.8587  133.7217  152.9395 C.3     1  UNL1        0.0158
     29 C         142.8520  132.2218  153.6339 C.3     1  UNL1        0.0158
     30 C         141.9213  134.8998  154.4649 C.3     1  UNL1        0.0342
     31 H         142.7796  132.0053  155.6163 H       1  UNL1        0.1231
@<TRIPOS>BOND
     1    19    20    1
     2    20     1    1
     3     1     2   ar
     4     2     3   ar
     5     3     4   ar
     6     4     7    1
     7     7     8   ar
     8     8     9   ar
     9     9    10   ar
    10    10    11   ar
    11    11    12   ar
    12    12    13   ar
    13    13    14   ar
    14    14    15   ar
    15    15    16   ar
    16    16    17    1
    17     4     5   ar
    18     5     6   ar
    19    20    21    1
    20    21    22    1
    21    22    23    1
    22    23    24    1
    23    23    25    1
    24    23    26    1
    25    26    27    1
    26    27    28    1
    27    27    29    1
    28    27    30    1
    29     6     1   ar
    30    30    21    1
    31    16     7   ar
    32    14     9   ar
    33    17    18    1
    34    26    31    1
