@<TRIPOS>MOLECULE
*****
 30 33 0 0 0
SMALL
GASTEIGER

@<TRIPOS>ATOM
      1 C         144.9177  140.0689  164.3371 C.3     1  UNL1        0.0720
      2 C         144.1128  139.5298  163.1918 C.ar    1  UNL1        0.1247
      3 N         144.4552  139.9208  161.7848 N.ar    1  UNL1       -0.2119
      4 C         143.6503  139.3816  160.6395 C.ar    1  UNL1        0.1863
      5 N         143.9928  139.7726  159.2325 N.ar    1  UNL1       -0.2187
      6 C         143.1879  139.2335  158.0873 C.ar    1  UNL1        0.1585
      7 C         142.0406  138.3034  158.3492 C.ar    1  UNL1        0.2496
      8 N         141.6982  137.9124  159.7562 N.ar    1  UNL1       -0.2020
      9 C         142.5030  138.4515  160.9014 C.ar    1  UNL1        0.1760
     10 C         142.1606  138.0605  162.3085 C.ar    1  UNL1        0.2825
     11 O         141.0133  137.1304  162.5704 O.2     1  UNL1       -0.2652
     12 N         142.9655  138.5996  163.4537 N.ar    1  UNL1       -0.2827
     13 O         141.2357  137.7642  157.2039 O.3     1  UNL1       -0.4348
     14 C         141.7168  136.5597  156.4505 C.ar    1  UNL1        0.1474
     15 C         143.0093  135.9021  156.8339 C.ar    1  UNL1        0.0399
     16 C         143.4903  134.6975  156.0805 C.ar    1  UNL1        0.0328
     17 C         142.6788  134.1505  154.9437 C.ar    1  UNL1        0.1403
     18 F         143.1599  132.9460  154.1904 F       1  UNL1       -0.2042
     19 C         141.3863  134.8081  154.5603 C.ar    1  UNL1        0.0328
     20 C         140.9053  136.0126  155.3137 C.ar    1  UNL1        0.0399
     21 C         142.6231  138.2087  164.8608 C.3     1  UNL1        0.1115
     22 C         141.6304  139.0164  165.6432 C.3     1  UNL1        0.0388
     23 C         140.1641  138.7236  165.5229 C.3     1  UNL1        0.0048
     24 C         139.1714  139.5314  166.3053 C.3     1  UNL1        0.0174
     25 C         139.6450  140.6319  167.2079 C.3     1  UNL1        0.0720
     26 N         141.1112  140.9246  167.3282 N.3     1  UNL1       -0.2739
     27 C         142.1039  140.1168  166.5458 C.3     1  UNL1        0.0739
     28 C         141.5847  142.0250  168.2308 C.3     1  UNL1        0.0576
     29 C         140.6156  143.0561  168.7285 C.3     1  UNL1        0.0173
     30 C         143.0274  142.0944  168.6358 C.3     1  UNL1        0.0173
@<TRIPOS>BOND
     1     1     2    1
     2     2     3   ar
     3     3     4   ar
     4     4     5   ar
     5     5     6   ar
     6     6     7   ar
     7     7    13    1
     8    13    14    1
     9    14    15   ar
    10    15    16   ar
    11    16    17   ar
    12    17    18    1
    13    17    19   ar
    14    19    20   ar
    15     7     8   ar
    16     8     9   ar
    17     9    10   ar
    18    10    11    2
    19    10    12   ar
    20    12    21    1
    21    22    21    1
    22    22    23    1
    23    23    24    1
    24    24    25    1
    25    25    26    1
    26    26    28    1
    27    28    29    1
    28    28    30    1
    29    26    27    1
    30    12     2   ar
    31    27    22    1
    32     9     4   ar
    33    20    14   ar
@<TRIPOS>MOLECULE
*****
 30 33 0 0 0
SMALL
GASTEIGER

@<TRIPOS>ATOM
      1 C         143.5018  143.2458  161.4137 C.3     1  UNL1        0.0720
      2 C         142.5508  143.9976  160.5303 C.ar    1  UNL1        0.1247
      3 N         142.7331  143.9754  159.0416 N.ar    1  UNL1       -0.2119
      4 C         141.7821  144.7272  158.1582 C.ar    1  UNL1        0.1863
      5 N         141.9644  144.7050  156.6695 N.ar    1  UNL1       -0.2187
      6 C         141.0134  145.4568  155.7862 C.ar    1  UNL1        0.1585
      7 C         139.8801  146.2309  156.3915 C.ar    1  UNL1        0.2496
      8 N         139.6978  146.2531  157.8802 N.ar    1  UNL1       -0.2020
      9 C         140.6488  145.5013  158.7636 C.ar    1  UNL1        0.1760
     10 C         140.4665  145.5235  160.2523 C.ar    1  UNL1        0.2825
     11 O         139.3332  146.2976  160.8577 O.2     1  UNL1       -0.2652
     12 N         141.4175  144.7717  161.1357 N.ar    1  UNL1       -0.2827
     13 O         138.9291  146.9827  155.5081 O.3     1  UNL1       -0.4348
     14 C         139.1980  148.4184  155.1671 C.ar    1  UNL1        0.1474
     15 C         138.5304  149.5123  155.9467 C.ar    1  UNL1        0.0399
     16 C         138.7993  150.9480  155.6056 C.ar    1  UNL1        0.0328
     17 C         139.7358  151.2899  154.4849 C.ar    1  UNL1        0.1403
     18 F         140.0047  152.7257  154.1438 F       1  UNL1       -0.2042
     19 C         140.4035  150.1961  153.7053 C.ar    1  UNL1        0.0328
     20 C         140.1346  148.7604  154.0463 C.ar    1  UNL1        0.0399
     21 C         141.2352  144.7939  162.6244 C.3     1  UNL1        0.1115
     22 C         140.0669  144.0892  163.2475 C.3     1  UNL1        0.0388
     23 C         139.1747  144.8200  164.2068 C.3     1  UNL1        0.0048
     24 C         138.0064  144.1153  164.8299 C.3     1  UNL1        0.0174
     25 C         137.7301  142.6797  164.4938 C.3     1  UNL1        0.0720
     26 N         138.6222  141.9489  163.5346 N.3     1  UNL1       -0.2739
     27 C         139.7906  142.6537  162.9115 C.3     1  UNL1        0.0739
     28 C         138.3459  140.5135  163.1985 C.3     1  UNL1        0.0576
     29 C         138.5648  139.4462  164.2296 C.3     1  UNL1        0.0173
     30 C         137.8508  140.1451  161.8313 C.3     1  UNL1        0.0173
@<TRIPOS>BOND
     1     1     2    1
     2     2     3   ar
     3     3     4   ar
     4     4     5   ar
     5     5     6   ar
     6     6     7   ar
     7     7    13    1
     8    13    14    1
     9    14    15   ar
    10    15    16   ar
    11    16    17   ar
    12    17    18    1
    13    17    19   ar
    14    19    20   ar
    15     7     8   ar
    16     8     9   ar
    17     9    10   ar
    18    10    11    2
    19    10    12   ar
    20    12    21    1
    21    22    21    1
    22    22    23    1
    23    23    24    1
    24    24    25    1
    25    25    26    1
    26    26    28    1
    27    28    29    1
    28    28    30    1
    29    26    27    1
    30    12     2   ar
    31    27    22    1
    32     9     4   ar
    33    20    14   ar
@<TRIPOS>MOLECULE
*****
 30 33 0 0 0
SMALL
GASTEIGER

@<TRIPOS>ATOM
      1 C         142.9894  144.0754  164.3282 C.3     1  UNL1        0.0720
      2 C         142.1456  144.2059  163.0949 C.ar    1  UNL1        0.1247
      3 N         142.7945  144.2495  161.7433 N.ar    1  UNL1       -0.2119
      4 C         141.9507  144.3800  160.5100 C.ar    1  UNL1        0.1863
      5 N         142.5996  144.4235  159.1584 N.ar    1  UNL1       -0.2187
      6 C         141.7558  144.5540  157.9252 C.ar    1  UNL1        0.1585
      7 C         140.2630  144.6410  158.0436 C.ar    1  UNL1        0.2496
      8 N         139.6140  144.5974  159.3952 N.ar    1  UNL1       -0.2020
      9 C         140.4579  144.4669  160.6284 C.ar    1  UNL1        0.1760
     10 C         139.8090  144.4234  161.9801 C.ar    1  UNL1        0.2825
     11 O         138.3162  144.5103  162.0986 O.2     1  UNL1       -0.2652
     12 N         140.6528  144.2929  163.2134 N.ar    1  UNL1       -0.2827
     13 O         139.4191  144.7715  156.8103 O.3     1  UNL1       -0.4348
     14 C         139.6074  145.9435  155.8933 C.ar    1  UNL1        0.1474
     15 C         140.4809  145.8142  154.6807 C.ar    1  UNL1        0.0399
     16 C         140.6692  146.9863  153.7636 C.ar    1  UNL1        0.0328
     17 C         139.9840  148.2875  154.0592 C.ar    1  UNL1        0.1403
     18 F         140.1723  149.4594  153.1421 F       1  UNL1       -0.2042
     19 C         139.1106  148.4167  155.2717 C.ar    1  UNL1        0.0328
     20 C         138.9223  147.2447  156.1888 C.ar    1  UNL1        0.0399
     21 C         140.0039  144.2493  164.5651 C.3     1  UNL1        0.1115
     22 C         139.9171  142.9525  165.3139 C.3     1  UNL1        0.0388
     23 C         140.3536  142.8835  166.7474 C.3     1  UNL1        0.0048
     24 C         140.2667  141.5867  167.4962 C.3     1  UNL1        0.0174
     25 C         139.7434  140.3588  166.8115 C.3     1  UNL1        0.0720
     26 N         139.3070  140.4279  165.3781 N.3     1  UNL1       -0.2739
     27 C         139.3938  141.7247  164.6293 C.3     1  UNL1        0.0739
     28 C         138.7837  139.2001  164.6935 C.3     1  UNL1        0.0576
     29 C         138.5648  137.9401  165.4773 C.3     1  UNL1        0.0173
     30 C         138.4793  139.2323  163.2250 C.3     1  UNL1        0.0173
@<TRIPOS>BOND
     1     1     2    1
     2     2     3   ar
     3     3     4   ar
     4     4     5   ar
     5     5     6   ar
     6     6     7   ar
     7     7    13    1
     8    13    14    1
     9    14    15   ar
    10    15    16   ar
    11    16    17   ar
    12    17    18    1
    13    17    19   ar
    14    19    20   ar
    15     7     8   ar
    16     8     9   ar
    17     9    10   ar
    18    10    11    2
    19    10    12   ar
    20    12    21    1
    21    22    21    1
    22    22    23    1
    23    23    24    1
    24    24    25    1
    25    25    26    1
    26    26    28    1
    27    28    29    1
    28    28    30    1
    29    26    27    1
    30    12     2   ar
    31    27    22    1
    32     9     4   ar
    33    20    14   ar
@<TRIPOS>MOLECULE
*****
 30 33 0 0 0
SMALL
GASTEIGER

@<TRIPOS>ATOM
      1 C         138.0257  144.2171  162.8858 C.3     1  UNL1        0.0720
      2 C         138.1307  143.0608  161.9360 C.ar    1  UNL1        0.1247
      3 N         138.5492  143.2934  160.5145 N.ar    1  UNL1       -0.2119
      4 C         138.6542  142.1371  159.5648 C.ar    1  UNL1        0.1863
      5 N         139.0728  142.3697  158.1433 N.ar    1  UNL1       -0.2187
      6 C         139.1778  141.2135  157.1936 C.ar    1  UNL1        0.1585
      7 C         138.8643  139.8245  157.6654 C.ar    1  UNL1        0.2496
      8 N         138.4458  139.5919  159.0869 N.ar    1  UNL1       -0.2020
      9 C         138.3407  140.7482  160.0366 C.ar    1  UNL1        0.1760
     10 C         137.9222  140.5155  161.4581 C.ar    1  UNL1        0.2825
     11 O         137.6087  139.1266  161.9299 O.2     1  UNL1       -0.2652
     12 N         137.8172  141.6718  162.4078 N.ar    1  UNL1       -0.2827
     13 O         138.9693  138.6682  156.7156 O.3     1  UNL1       -0.4348
     14 C         140.2127  137.8296  156.6896 C.ar    1  UNL1        0.1474
     15 C         141.3414  138.1324  157.6300 C.ar    1  UNL1        0.0399
     16 C         142.5848  137.2937  157.6039 C.ar    1  UNL1        0.0328
     17 C         142.6994  136.1523  156.6375 C.ar    1  UNL1        0.1403
     18 F         143.9428  135.3136  156.6115 F       1  UNL1       -0.2042
     19 C         141.5707  135.8495  155.6971 C.ar    1  UNL1        0.0328
     20 C         140.3274  136.6881  155.7231 C.ar    1  UNL1        0.0399
     21 C         137.3986  141.4392  163.8294 C.3     1  UNL1        0.1115
     22 C         138.4062  140.9834  164.8428 C.3     1  UNL1        0.0388
     23 C         138.1564  139.7382  165.6412 C.3     1  UNL1        0.0048
     24 C         139.1639  139.2824  166.6546 C.3     1  UNL1        0.0174
     25 C         140.4213  140.0716  166.8697 C.3     1  UNL1        0.0720
     26 N         140.6710  141.3167  166.0713 N.3     1  UNL1       -0.2739
     27 C         139.6635  141.7725  165.0579 C.3     1  UNL1        0.0739
     28 C         141.9283  142.1059  166.2864 C.3     1  UNL1        0.0576
     29 C         142.6023  142.0924  167.6264 C.3     1  UNL1        0.0173
     30 C         142.5117  142.9086  165.1614 C.3     1  UNL1        0.0173
@<TRIPOS>BOND
     1     1     2    1
     2     2     3   ar
     3     3     4   ar
     4     4     5   ar
     5     5     6   ar
     6     6     7   ar
     7     7    13    1
     8    13    14    1
     9    14    15   ar
    10    15    16   ar
    11    16    17   ar
    12    17    18    1
    13    17    19   ar
    14    19    20   ar
    15     7     8   ar
    16     8     9   ar
    17     9    10   ar
    18    10    11    2
    19    10    12   ar
    20    12    21    1
    21    22    21    1
    22    22    23    1
    23    23    24    1
    24    24    25    1
    25    25    26    1
    26    26    28    1
    27    28    29    1
    28    28    30    1
    29    26    27    1
    30    12     2   ar
    31    27    22    1
    32     9     4   ar
    33    20    14   ar
@<TRIPOS>MOLECULE
*****
 30 33 0 0 0
SMALL
GASTEIGER

@<TRIPOS>ATOM
      1 C         144.9998  140.1430  164.1524 C.3     1  UNL1        0.0720
      2 C         144.1821  139.5648  163.0356 C.ar    1  UNL1        0.1247
      3 N         144.4996  139.9181  161.6128 N.ar    1  UNL1       -0.2119
      4 C         143.6819  139.3400  160.4960 C.ar    1  UNL1        0.1863
      5 N         143.9995  139.6933  159.0733 N.ar    1  UNL1       -0.2187
      6 C         143.1818  139.1152  157.9565 C.ar    1  UNL1        0.1585
      7 C         142.0466  138.1837  158.2626 C.ar    1  UNL1        0.2496
      8 N         141.7291  137.8303  159.6853 N.ar    1  UNL1       -0.2020
      9 C         142.5468  138.4085  160.8021 C.ar    1  UNL1        0.1760
     10 C         142.2293  138.0551  162.2249 C.ar    1  UNL1        0.2825
     11 O         141.0941  137.1236  162.5309 O.2     1  UNL1       -0.2652
     12 N         143.0469  138.6333  163.3416 N.ar    1  UNL1       -0.2827
     13 O         141.2289  137.6055  157.1458 O.3     1  UNL1       -0.4348
     14 C         141.7188  136.3963  156.4057 C.ar    1  UNL1        0.1474
     15 C         140.9613  135.8877  155.2151 C.ar    1  UNL1        0.0399
     16 C         141.4513  134.6784  154.4751 C.ar    1  UNL1        0.0328
     17 C         142.6988  133.9778  154.9255 C.ar    1  UNL1        0.1403
     18 F         143.1887  132.7687  154.1854 F       1  UNL1       -0.2042
     19 C         143.4563  134.4865  156.1161 C.ar    1  UNL1        0.0328
     20 C         142.9664  135.6957  156.8561 C.ar    1  UNL1        0.0399
     21 C         142.7294  138.2800  164.7645 C.3     1  UNL1        0.1115
     22 C         142.0576  139.2833  165.6544 C.3     1  UNL1        0.0388
     23 C         142.3880  139.3286  167.1169 C.3     1  UNL1        0.0048
     24 C         141.7161  140.3319  168.0068 C.3     1  UNL1        0.0174
     25 C         140.7138  141.2899  167.4342 C.3     1  UNL1        0.0720
     26 N         140.3835  141.2446  165.9717 N.3     1  UNL1       -0.2739
     27 C         141.0554  140.2412  165.0818 C.3     1  UNL1        0.0739
     28 C         139.3813  142.2025  165.3992 C.3     1  UNL1        0.0576
     29 C         138.1545  141.6819  164.7107 C.3     1  UNL1        0.0173
     30 C         139.6058  143.6811  165.5152 C.3     1  UNL1        0.0173
@<TRIPOS>BOND
     1     1     2    1
     2     2     3   ar
     3     3     4   ar
     4     4     5   ar
     5     5     6   ar
     6     6     7   ar
     7     7    13    1
     8    13    14    1
     9    14    15   ar
    10    15    16   ar
    11    16    17   ar
    12    17    18    1
    13    17    19   ar
    14    19    20   ar
    15     7     8   ar
    16     8     9   ar
    17     9    10   ar
    18    10    11    2
    19    10    12   ar
    20    12    21    1
    21    22    21    1
    22    22    23    1
    23    23    24    1
    24    24    25    1
    25    25    26    1
    26    26    28    1
    27    28    29    1
    28    28    30    1
    29    26    27    1
    30    12     2   ar
    31    27    22    1
    32     9     4   ar
    33    20    14   ar
@<TRIPOS>MOLECULE
*****
 30 33 0 0 0
SMALL
GASTEIGER

@<TRIPOS>ATOM
      1 C         143.0077  144.0384  164.3333 C.3     1  UNL1        0.0720
      2 C         142.1599  144.1748  163.1033 C.ar    1  UNL1        0.1247
      3 N         142.8037  144.2120  161.7490 N.ar    1  UNL1       -0.2119
      4 C         141.9559  144.3484  160.5191 C.ar    1  UNL1        0.1863
      5 N         142.5996  144.3856  159.1648 N.ar    1  UNL1       -0.2187
      6 C         141.7518  144.5219  157.9349 C.ar    1  UNL1        0.1585
      7 C         140.2603  144.6211  158.0594 C.ar    1  UNL1        0.2496
      8 N         139.6166  144.5838  159.4137 N.ar    1  UNL1       -0.2020
      9 C         140.4643  144.4475  160.6435 C.ar    1  UNL1        0.1760
     10 C         139.8206  144.4103  161.9979 C.ar    1  UNL1        0.2825
     11 O         138.3291  144.5094  162.1223 O.2     1  UNL1       -0.2652
     12 N         140.6684  144.2739  163.2278 N.ar    1  UNL1       -0.2827
     13 O         139.4125  144.7574  156.8294 O.3     1  UNL1       -0.4348
     14 C         139.6193  145.9170  155.9007 C.ar    1  UNL1        0.1474
     15 C         140.4894  145.7615  154.6888 C.ar    1  UNL1        0.0399
     16 C         140.6962  146.9212  153.7601 C.ar    1  UNL1        0.0328
     17 C         140.0329  148.2364  154.0434 C.ar    1  UNL1        0.1403
     18 F         140.2397  149.3960  153.1147 F       1  UNL1       -0.2042
     19 C         139.1628  148.3919  155.2553 C.ar    1  UNL1        0.0328
     20 C         138.9560  147.2323  156.1839 C.ar    1  UNL1        0.0399
     21 C         140.0247  144.2367  164.5822 C.3     1  UNL1        0.1115
     22 C         139.7783  142.9212  165.2595 C.3     1  UNL1        0.0388
     23 C         139.0888  141.8138  164.5190 C.3     1  UNL1        0.0048
     24 C         138.8424  140.4983  165.1964 C.3     1  UNL1        0.0174
     25 C         139.2856  140.2902  166.6143 C.3     1  UNL1        0.0720
     26 N         139.9751  141.3976  167.3547 N.3     1  UNL1       -0.2739
     27 C         140.2214  142.7131  166.6774 C.3     1  UNL1        0.0739
     28 C         140.4182  141.1895  168.7726 C.3     1  UNL1        0.0576
     29 C         140.2505  142.2883  169.7797 C.3     1  UNL1        0.0173
     30 C         141.0291  139.8825  169.1833 C.3     1  UNL1        0.0173
@<TRIPOS>BOND
     1     1     2    1
     2     2     3   ar
     3     3     4   ar
     4     4     5   ar
     5     5     6   ar
     6     6     7   ar
     7     7    13    1
     8    13    14    1
     9    14    15   ar
    10    15    16   ar
    11    16    17   ar
    12    17    18    1
    13    17    19   ar
    14    19    20   ar
    15     7     8   ar
    16     8     9   ar
    17     9    10   ar
    18    10    11    2
    19    10    12   ar
    20    12    21    1
    21    22    21    1
    22    22    23    1
    23    23    24    1
    24    24    25    1
    25    25    26    1
    26    26    28    1
    27    28    29    1
    28    28    30    1
    29    26    27    1
    30    12     2   ar
    31    27    22    1
    32     9     4   ar
    33    20    14   ar
@<TRIPOS>MOLECULE
*****
 30 33 0 0 0
SMALL
GASTEIGER

@<TRIPOS>ATOM
      1 C         138.1286  143.7778  164.5286 C.3     1  UNL1        0.0720
      2 C         138.2185  142.7956  163.3984 C.ar    1  UNL1        0.1247
      3 N         138.1943  143.2809  161.9793 N.ar    1  UNL1       -0.2119
      4 C         138.2842  142.2987  160.8491 C.ar    1  UNL1        0.1863
      5 N         138.2600  142.7840  159.4300 N.ar    1  UNL1       -0.2187
      6 C         138.3499  141.8019  158.2999 C.ar    1  UNL1        0.1585
      7 C         138.4641  140.3344  158.5889 C.ar    1  UNL1        0.2496
      8 N         138.4884  139.8491  160.0079 N.ar    1  UNL1       -0.2020
      9 C         138.3984  140.8313  161.1381 C.ar    1  UNL1        0.1760
     10 C         138.4227  140.3460  162.5572 C.ar    1  UNL1        0.2825
     11 O         138.5369  138.8785  162.8462 O.2     1  UNL1       -0.2652
     12 N         138.3327  141.3282  163.6874 N.ar    1  UNL1       -0.2827
     13 O         138.5541  139.3522  157.4586 O.3     1  UNL1       -0.4348
     14 C         139.8176  138.5741  157.2400 C.ar    1  UNL1        0.1474
     15 C         139.8127  137.3726  156.3420 C.ar    1  UNL1        0.0399
     16 C         141.0764  136.5945  156.1234 C.ar    1  UNL1        0.0328
     17 C         142.3448  137.0177  156.8028 C.ar    1  UNL1        0.1403
     18 F         143.6084  136.2396  156.5842 F       1  UNL1       -0.2042
     19 C         142.3498  138.2192  157.7009 C.ar    1  UNL1        0.0328
     20 C         141.0862  138.9973  157.9195 C.ar    1  UNL1        0.0399
     21 C         138.3570  140.8429  165.1065 C.3     1  UNL1        0.1115
     22 C         139.6679  140.6197  165.8005 C.3     1  UNL1        0.0388
     23 C         140.9485  140.6795  165.0217 C.3     1  UNL1        0.0048
     24 C         142.2595  140.4563  165.7157 C.3     1  UNL1        0.0174
     25 C         142.2898  140.1733  167.1885 C.3     1  UNL1        0.0720
     26 N         141.0092  140.1136  167.9672 N.3     1  UNL1       -0.2739
     27 C         139.6983  140.3367  167.2733 C.3     1  UNL1        0.0739
     28 C         141.0395  139.8306  169.4400 C.3     1  UNL1        0.0576
     29 C         139.8764  140.2212  170.3029 C.3     1  UNL1        0.0173
     30 C         142.2330  139.1570  170.0499 C.3     1  UNL1        0.0173
@<TRIPOS>BOND
     1     1     2    1
     2     2     3   ar
     3     3     4   ar
     4     4     5   ar
     5     5     6   ar
     6     6     7   ar
     7     7    13    1
     8    13    14    1
     9    14    15   ar
    10    15    16   ar
    11    16    17   ar
    12    17    18    1
    13    17    19   ar
    14    19    20   ar
    15     7     8   ar
    16     8     9   ar
    17     9    10   ar
    18    10    11    2
    19    10    12   ar
    20    12    21    1
    21    22    21    1
    22    22    23    1
    23    23    24    1
    24    24    25    1
    25    25    26    1
    26    26    28    1
    27    28    29    1
    28    28    30    1
    29    26    27    1
    30    12     2   ar
    31    27    22    1
    32     9     4   ar
    33    20    14   ar
@<TRIPOS>MOLECULE
*****
 30 33 0 0 0
SMALL
GASTEIGER

@<TRIPOS>ATOM
      1 C         139.8490  137.0558  154.6134 C.3     1  UNL1        0.0720
      2 C         140.1777  137.5198  156.0015 C.ar    1  UNL1        0.1247
      3 N         139.1838  138.3345  156.7750 N.ar    1  UNL1       -0.2119
      4 C         139.5125  138.7985  158.1631 C.ar    1  UNL1        0.1863
      5 N         138.5186  139.6132  158.9366 N.ar    1  UNL1       -0.2187
      6 C         138.8473  140.0771  160.3246 C.ar    1  UNL1        0.1585
      7 C         140.1699  139.7264  160.9391 C.ar    1  UNL1        0.2496
      8 N         141.1638  138.9117  160.1656 N.ar    1  UNL1       -0.2020
      9 C         140.8351  138.4477  158.7776 C.ar    1  UNL1        0.1760
     10 C         141.8291  137.6330  158.0040 C.ar    1  UNL1        0.2825
     11 O         143.1517  137.2822  158.6186 O.2     1  UNL1       -0.2652
     12 N         141.5003  137.1690  156.6160 N.ar    1  UNL1       -0.2827
     13 O         140.4986  140.1904  162.3273 O.3     1  UNL1       -0.4348
     14 C         139.7608  139.6212  163.5027 C.ar    1  UNL1        0.1474
     15 C         139.8527  138.1555  163.8078 C.ar    1  UNL1        0.0399
     16 C         139.1148  137.5864  164.9833 C.ar    1  UNL1        0.0328
     17 C         138.2851  138.4830  165.8536 C.ar    1  UNL1        0.1403
     18 F         137.5473  137.9139  167.0290 F       1  UNL1       -0.2042
     19 C         138.1932  139.9488  165.5485 C.ar    1  UNL1        0.0328
     20 C         138.9310  140.5179  164.3731 C.ar    1  UNL1        0.0399
     21 C         142.4943  136.3543  155.8424 C.3     1  UNL1        0.1115
     22 C         142.5152  134.8614  155.9874 C.3     1  UNL1        0.0388
     23 C         143.3760  134.2218  157.0362 C.3     1  UNL1        0.0048
     24 C         143.3969  132.7289  157.1812 C.3     1  UNL1        0.0174
     25 C         142.5571  131.8758  156.2773 C.3     1  UNL1        0.0720
     26 N         141.6965  132.5155  155.2285 N.3     1  UNL1       -0.2739
     27 C         141.6755  134.0083  155.0836 C.3     1  UNL1        0.0739
     28 C         140.8567  131.6623  154.3247 C.3     1  UNL1        0.0576
     29 C         140.1855  130.4337  154.8633 C.3     1  UNL1        0.0173
     30 C         140.6882  132.0377  152.8822 C.3     1  UNL1        0.0173
@<TRIPOS>BOND
     1     1     2    1
     2     2     3   ar
     3     3     4   ar
     4     4     5   ar
     5     5     6   ar
     6     6     7   ar
     7     7    13    1
     8    13    14    1
     9    14    15   ar
    10    15    16   ar
    11    16    17   ar
    12    17    18    1
    13    17    19   ar
    14    19    20   ar
    15     7     8   ar
    16     8     9   ar
    17     9    10   ar
    18    10    11    2
    19    10    12   ar
    20    12    21    1
    21    22    21    1
    22    22    23    1
    23    23    24    1
    24    24    25    1
    25    25    26    1
    26    26    28    1
    27    28    29    1
    28    28    30    1
    29    26    27    1
    30    12     2   ar
    31    27    22    1
    32     9     4   ar
    33    20    14   ar
@<TRIPOS>MOLECULE
*****
 30 33 0 0 0
SMALL
GASTEIGER

@<TRIPOS>ATOM
      1 C         144.3751  137.6517  155.3672 C.3     1  UNL1        0.0720
      2 C         143.1401  137.7927  156.2069 C.ar    1  UNL1        0.1247
      3 N         143.2055  138.5103  157.5225 N.ar    1  UNL1       -0.2119
      4 C         141.9705  138.6512  158.3621 C.ar    1  UNL1        0.1863
      5 N         142.0359  139.3688  159.6777 N.ar    1  UNL1       -0.2187
      6 C         140.8009  139.5097  160.5173 C.ar    1  UNL1        0.1585
      7 C         139.5006  138.9330  160.0414 C.ar    1  UNL1        0.2496
      8 N         139.4352  138.2154  158.7258 N.ar    1  UNL1       -0.2020
      9 C         140.6702  138.0745  157.8862 C.ar    1  UNL1        0.1760
     10 C         140.6048  137.3569  156.5706 C.ar    1  UNL1        0.2825
     11 O         139.3045  136.7802  156.0946 O.2     1  UNL1       -0.2652
     12 N         141.8397  137.2160  155.7310 N.ar    1  UNL1       -0.2827
     13 O         138.2656  139.0739  160.8811 O.3     1  UNL1       -0.4348
     14 C         138.3707  139.0625  162.3773 C.ar    1  UNL1        0.1474
     15 C         137.9985  140.2837  163.1647 C.ar    1  UNL1        0.0399
     16 C         138.1036  140.2722  164.6610 C.ar    1  UNL1        0.0328
     17 C         138.5808  139.0395  165.3699 C.ar    1  UNL1        0.1403
     18 F         138.6858  139.0280  166.8661 F       1  UNL1       -0.2042
     19 C         138.9530  137.8182  164.5825 C.ar    1  UNL1        0.0328
     20 C         138.8479  137.8297  163.0863 C.ar    1  UNL1        0.0399
     21 C         141.7744  136.4983  154.4153 C.3     1  UNL1        0.1115
     22 C         142.0972  135.0353  154.3422 C.3     1  UNL1        0.0388
     23 C         141.8496  134.2751  153.0730 C.3     1  UNL1        0.0048
     24 C         142.1724  132.8121  152.9999 C.3     1  UNL1        0.0174
     25 C         142.7429  132.1093  154.1960 C.3     1  UNL1        0.0720
     26 N         142.9905  132.8695  155.4651 N.3     1  UNL1       -0.2739
     27 C         142.6677  134.3325  155.5382 C.3     1  UNL1        0.0739
     28 C         143.5610  132.1666  156.6612 C.3     1  UNL1        0.0576
     29 C         143.2183  130.7295  156.9207 C.3     1  UNL1        0.0173
     30 C         144.4742  132.9008  157.5977 C.3     1  UNL1        0.0173
@<TRIPOS>BOND
     1     1     2    1
     2     2     3   ar
     3     3     4   ar
     4     4     5   ar
     5     5     6   ar
     6     6     7   ar
     7     7    13    1
     8    13    14    1
     9    14    15   ar
    10    15    16   ar
    11    16    17   ar
    12    17    18    1
    13    17    19   ar
    14    19    20   ar
    15     7     8   ar
    16     8     9   ar
    17     9    10   ar
    18    10    11    2
    19    10    12   ar
    20    12    21    1
    21    22    21    1
    22    22    23    1
    23    23    24    1
    24    24    25    1
    25    25    26    1
    26    26    28    1
    27    28    29    1
    28    28    30    1
    29    26    27    1
    30    12     2   ar
    31    27    22    1
    32     9     4   ar
    33    20    14   ar
