@<TRIPOS>MOLECULE
*****
 33 36 0 0 0
SMALL
GASTEIGER

@<TRIPOS>ATOM
      1 N         138.1274  139.7985  163.3220 N.3     1  UNL1       -0.2698
      2 N         140.0831  139.8239  167.3747 N.pl3   1  UNL1       -0.2769
      3 C         138.6935  139.2818  167.2159 C.3     1  UNL1        0.0950
      4 C         138.0417  139.2734  165.8650 C.3     1  UNL1        0.0375
      5 C         138.7793  139.8070  164.6729 C.3     1  UNL1        0.0612
      6 C         140.1689  140.3491  164.8317 C.3     1  UNL1        0.0375
      7 C         140.8208  140.3575  166.1826 C.3     1  UNL1        0.0950
      8 N         143.7316  139.7334  171.1906 N.pl3   1  UNL1       -0.3278
      9 C         142.4121  139.7908  170.4796 C.ar    1  UNL1        0.2099
     10 N         142.2085  139.7489  168.9941 N.ar    1  UNL1       -0.1804
     11 C         140.7350  139.8324  168.7256 C.ar    1  UNL1        0.2395
     12 N         140.0280  139.9260  170.0452 N.ar    1  UNL1       -0.1349
     13 N         141.0645  139.9002  171.1292 N.ar    1  UNL1       -0.2453
     14 H         144.5665  139.6614  170.6738 H       1  UNL1        0.1451
     15 H         143.7628  139.7677  172.1740 H       1  UNL1        0.1451
     16 H         140.8908  139.9470  172.0972 H       1  UNL1        0.1919
     17 C         138.1699  138.5602  162.4765 C.3     1  UNL1        0.0770
     18 C         139.2209  138.4115  161.4166 C.3     1  UNL1        0.0437
     19 C         140.6107  138.9195  161.6620 C.ar    1  UNL1       -0.0207
     20 C         141.6074  138.0599  162.3816 C.ar    1  UNL1       -0.0034
     21 C         142.9972  138.5680  162.6270 C.ar    1  UNL1        0.0111
     22 C         143.3904  139.9357  162.1528 C.ar    1  UNL1        0.0577
     23 CL        144.7802  140.4437  162.3983 Cl      1  UNL1       -0.0822
     24 C         142.3938  140.7953  161.4332 C.ar    1  UNL1        0.0111
     25 C         141.0039  140.2871  161.1878 C.ar    1  UNL1       -0.0034
     26 C         137.4329  141.0282  162.8166 C.3     1  UNL1        0.0991
     27 C         138.0569  142.3775  163.0165 C.ar    1  UNL1       -0.0053
     28 C         138.8520  143.0073  161.9113 C.ar    1  UNL1       -0.0029
     29 C         139.4760  144.3566  162.1112 C.ar    1  UNL1        0.0006
     30 C         139.3049  145.0762  163.4162 C.ar    1  UNL1        0.0114
     31 C         138.5099  144.4465  164.5213 C.ar    1  UNL1        0.0574
     32 CL        138.3388  145.1660  165.8263 Cl      1  UNL1       -0.0823
     33 C         137.8859  143.0971  164.3214 C.ar    1  UNL1        0.0085
@<TRIPOS>BOND
     1     8     9    1
     2     9    10   ar
     3    10    11   ar
     4    11     2    1
     5     2     3    1
     6     3     4    1
     7     4     5    1
     8     5     1    1
     9     1    17    1
    10    17    18    1
    11    18    19    1
    12    19    20   ar
    13    20    21   ar
    14    21    22   ar
    15    22    23    1
    16    22    24   ar
    17    24    25   ar
    18     1    26    1
    19    26    27    1
    20    27    28   ar
    21    28    29   ar
    22    29    30   ar
    23    30    31   ar
    24    31    32    1
    25    31    33   ar
    26     5     6    1
    27     6     7    1
    28    11    12   ar
    29    12    13   ar
    30    13     9   ar
    31     7     2    1
    32    25    19   ar
    33    33    27   ar
    34     8    14    1
    35     8    15    1
    36    13    16    1
@<TRIPOS>MOLECULE
*****
 33 36 0 0 0
SMALL
GASTEIGER

@<TRIPOS>ATOM
      1 N         138.2420  142.9452  163.6042 N.3     1  UNL1       -0.2698
      2 N         140.1076  144.7116  159.9097 N.pl3   1  UNL1       -0.2769
      3 C         139.6040  143.2988  159.8934 C.3     1  UNL1        0.0950
      4 C         138.9822  142.7100  161.1249 C.3     1  UNL1        0.0375
      5 C         138.8639  143.5340  162.3727 C.3     1  UNL1        0.0612
      6 C         139.3675  144.9469  162.3890 C.3     1  UNL1        0.0375
      7 C         139.9894  145.5356  161.1575 C.3     1  UNL1        0.0950
      8 N         140.7513  146.5995  155.0207 N.pl3   1  UNL1       -0.3278
      9 C         141.0254  146.1682  156.4310 C.ar    1  UNL1        0.2099
     10 N         140.0254  145.5845  157.3846 N.ar    1  UNL1       -0.1804
     11 C         140.7296  145.3004  158.6782 C.ar    1  UNL1        0.2395
     12 N         142.1647  145.7085  158.5242 N.ar    1  UNL1       -0.1349
     13 N         142.3476  146.2449  157.1353 N.ar    1  UNL1       -0.2453
     14 H         139.8457  146.5090  154.6455 H       1  UNL1        0.1451
     15 H         141.4772  146.9730  154.4703 H       1  UNL1        0.1451
     16 H         143.1878  146.5871  156.7531 H       1  UNL1        0.1919
     17 C         138.3329  143.6740  164.9121 C.3     1  UNL1        0.0770
     18 C         139.6570  143.8123  165.6032 C.3     1  UNL1        0.0437
     19 C         140.4810  142.5937  165.8963 C.ar    1  UNL1       -0.0207
     20 C         141.3455  141.9975  164.8253 C.ar    1  UNL1       -0.0034
     21 C         142.1695  140.7789  165.1184 C.ar    1  UNL1        0.0111
     22 C         142.1290  140.1564  166.4826 C.ar    1  UNL1        0.0577
     23 CL        142.9530  138.9378  166.7757 Cl      1  UNL1       -0.0822
     24 C         141.2644  140.7526  167.5536 C.ar    1  UNL1        0.0111
     25 C         140.4404  141.9713  167.2605 C.ar    1  UNL1       -0.0034
     26 C         137.5293  141.6276  163.5278 C.3     1  UNL1        0.0991
     27 C         138.2059  140.3797  164.0124 C.ar    1  UNL1       -0.0053
     28 C         138.0008  139.9151  165.4239 C.ar    1  UNL1       -0.0029
     29 C         138.6774  138.6672  165.9085 C.ar    1  UNL1        0.0006
     30 C         139.5591  137.8838  164.9817 C.ar    1  UNL1        0.0114
     31 C         139.7642  138.3483  163.5703 C.ar    1  UNL1        0.0574
     32 CL        140.6459  137.5650  162.6435 Cl      1  UNL1       -0.0823
     33 C         139.0876  139.5963  163.0856 C.ar    1  UNL1        0.0085
@<TRIPOS>BOND
     1     8     9    1
     2     9    10   ar
     3    10    11   ar
     4    11     2    1
     5     2     3    1
     6     3     4    1
     7     4     5    1
     8     5     1    1
     9     1    17    1
    10    17    18    1
    11    18    19    1
    12    19    20   ar
    13    20    21   ar
    14    21    22   ar
    15    22    23    1
    16    22    24   ar
    17    24    25   ar
    18     1    26    1
    19    26    27    1
    20    27    28   ar
    21    28    29   ar
    22    29    30   ar
    23    30    31   ar
    24    31    32    1
    25    31    33   ar
    26     5     6    1
    27     6     7    1
    28    11    12   ar
    29    12    13   ar
    30    13     9   ar
    31     7     2    1
    32    25    19   ar
    33    33    27   ar
    34     8    14    1
    35     8    15    1
    36    13    16    1
@<TRIPOS>MOLECULE
*****
 33 36 0 0 0
SMALL
GASTEIGER

@<TRIPOS>ATOM
      1 N         137.9541  140.2951  163.1772 N.3     1  UNL1       -0.2698
      2 N         139.4392  140.1566  167.4228 N.pl3   1  UNL1       -0.2769
      3 C         139.8602  141.2757  166.5171 C.3     1  UNL1        0.0950
      4 C         139.3652  141.3218  165.1020 C.3     1  UNL1        0.0375
      5 C         138.4491  140.2489  164.5924 C.3     1  UNL1        0.0612
      6 C         138.0281  139.1298  165.4981 C.3     1  UNL1        0.0375
      7 C         138.5231  139.0836  166.9133 C.3     1  UNL1        0.0950
      8 N         142.5745  140.4778  171.6593 N.pl3   1  UNL1       -0.3278
      9 C         141.3754  140.2580  170.7853 C.ar    1  UNL1        0.2099
     10 N         141.3244  140.4371  169.2970 N.ar    1  UNL1       -0.1804
     11 C         139.9342  140.1104  168.8381 C.ar    1  UNL1        0.2395
     12 N         139.1260  139.7293  170.0428 N.ar    1  UNL1       -0.1349
     13 N         140.0166  139.8205  171.2463 N.ar    1  UNL1       -0.2453
     14 H         143.4274  140.7665  171.2613 H       1  UNL1        0.1451
     15 H         142.5086  140.3333  172.6309 H       1  UNL1        0.1451
     16 H         139.7553  139.6273  172.1756 H       1  UNL1        0.1919
     17 C         138.0143  139.0649  162.3210 C.3     1  UNL1        0.0770
     18 C         139.3027  138.6733  161.6602 C.3     1  UNL1        0.0437
     19 C         140.6118  139.0089  162.3111 C.ar    1  UNL1       -0.0207
     20 C         141.3299  140.2734  161.9431 C.ar    1  UNL1       -0.0034
     21 C         142.6390  140.6090  162.5940 C.ar    1  UNL1        0.0111
     22 C         143.2299  139.6802  163.6129 C.ar    1  UNL1        0.0577
     23 CL        144.5390  140.0158  164.2638 Cl      1  UNL1       -0.0822
     24 C         142.5118  138.4158  163.9809 C.ar    1  UNL1        0.0111
     25 C         141.2026  138.0801  163.3299 C.ar    1  UNL1       -0.0034
     26 C         137.3989  141.5715  162.6181 C.3     1  UNL1        0.0991
     27 C         138.2689  142.4672  161.7869 C.ar    1  UNL1       -0.0053
     28 C         138.5380  142.1289  160.3505 C.ar    1  UNL1       -0.0029
     29 C         139.4079  143.0245  159.5193 C.ar    1  UNL1        0.0006
     30 C         140.0087  144.2586  160.1244 C.ar    1  UNL1        0.0114
     31 C         139.7397  144.5969  161.5608 C.ar    1  UNL1        0.0574
     32 CL        140.3405  145.8309  162.1659 Cl      1  UNL1       -0.0823
     33 C         138.8697  143.7012  162.3921 C.ar    1  UNL1        0.0085
@<TRIPOS>BOND
     1     8     9    1
     2     9    10   ar
     3    10    11   ar
     4    11     2    1
     5     2     3    1
     6     3     4    1
     7     4     5    1
     8     5     1    1
     9     1    17    1
    10    17    18    1
    11    18    19    1
    12    19    20   ar
    13    20    21   ar
    14    21    22   ar
    15    22    23    1
    16    22    24   ar
    17    24    25   ar
    18     1    26    1
    19    26    27    1
    20    27    28   ar
    21    28    29   ar
    22    29    30   ar
    23    30    31   ar
    24    31    32    1
    25    31    33   ar
    26     5     6    1
    27     6     7    1
    28    11    12   ar
    29    12    13   ar
    30    13     9   ar
    31     7     2    1
    32    25    19   ar
    33    33    27   ar
    34     8    14    1
    35     8    15    1
    36    13    16    1
@<TRIPOS>MOLECULE
*****
 33 36 0 0 0
SMALL
GASTEIGER

@<TRIPOS>ATOM
      1 N         138.5514  139.3139  163.4095 N.3     1  UNL1       -0.2698
      2 N         139.7914  140.2270  167.6378 N.pl3   1  UNL1       -0.2769
      3 C         140.6202  140.7218  166.4897 C.3     1  UNL1        0.0950
      4 C         140.2069  140.4174  165.0803 C.3     1  UNL1        0.0375
      5 C         138.9647  139.6182  164.8190 C.3     1  UNL1        0.0612
      6 C         138.1359  139.1234  165.9671 C.3     1  UNL1        0.0375
      7 C         138.5492  139.4278  167.3765 C.3     1  UNL1        0.0950
      8 N         142.2245  142.3679  171.8064 N.pl3   1  UNL1       -0.3278
      9 C         141.3231  141.5154  170.9634 C.ar    1  UNL1        0.2099
     10 N         141.2281  141.5446  169.4667 N.ar    1  UNL1       -0.1804
     11 C         140.2047  140.5313  169.0473 C.ar    1  UNL1        0.2395
     12 N         139.6672  139.8759  170.2848 N.ar    1  UNL1       -0.1349
     13 N         140.3584  140.4840  171.4690 N.ar    1  UNL1       -0.2453
     14 H         142.8259  143.0202  171.3797 H       1  UNL1        0.1451
     15 H         142.2148  142.2750  172.7865 H       1  UNL1        0.1451
     16 H         140.2057  140.2478  172.4125 H       1  UNL1        0.1919
     17 C         138.9740  138.0269  162.7653 C.3     1  UNL1        0.0770
     18 C         140.1481  138.0056  161.8318 C.3     1  UNL1        0.0437
     19 C         141.4173  138.7116  162.2067 C.ar    1  UNL1       -0.0207
     20 C         141.7051  140.0782  161.6593 C.ar    1  UNL1       -0.0034
     21 C         142.9743  140.7843  162.0342 C.ar    1  UNL1        0.0111
     22 C         143.9557  140.1238  162.9566 C.ar    1  UNL1        0.0577
     23 CL        145.2249  140.8299  163.3315 Cl      1  UNL1       -0.0822
     24 C         143.6678  138.7573  163.5040 C.ar    1  UNL1        0.0111
     25 C         142.3986  138.0512  163.1291 C.ar    1  UNL1       -0.0034
     26 C         137.7154  140.2965  162.6443 C.3     1  UNL1        0.0991
     27 C         138.0176  141.7634  162.7277 C.ar    1  UNL1       -0.0053
     28 C         137.4288  142.5888  163.8331 C.ar    1  UNL1       -0.0029
     29 C         137.7309  144.0556  163.9165 C.ar    1  UNL1        0.0006
     30 C         138.6219  144.6971  162.8944 C.ar    1  UNL1        0.0114
     31 C         139.2107  143.8718  161.7890 C.ar    1  UNL1        0.0574
     32 CL        140.1017  144.5133  160.7669 Cl      1  UNL1       -0.0823
     33 C         138.9085  142.4048  161.7056 C.ar    1  UNL1        0.0085
@<TRIPOS>BOND
     1     8     9    1
     2     9    10   ar
     3    10    11   ar
     4    11     2    1
     5     2     3    1
     6     3     4    1
     7     4     5    1
     8     5     1    1
     9     1    17    1
    10    17    18    1
    11    18    19    1
    12    19    20   ar
    13    20    21   ar
    14    21    22   ar
    15    22    23    1
    16    22    24   ar
    17    24    25   ar
    18     1    26    1
    19    26    27    1
    20    27    28   ar
    21    28    29   ar
    22    29    30   ar
    23    30    31   ar
    24    31    32    1
    25    31    33   ar
    26     5     6    1
    27     6     7    1
    28    11    12   ar
    29    12    13   ar
    30    13     9   ar
    31     7     2    1
    32    25    19   ar
    33    33    27   ar
    34     8    14    1
    35     8    15    1
    36    13    16    1
@<TRIPOS>MOLECULE
*****
 33 36 0 0 0
SMALL
GASTEIGER

@<TRIPOS>ATOM
      1 N         139.0742  143.4963  164.2044 N.3     1  UNL1       -0.2698
      2 N         140.4598  145.0238  160.2049 N.pl3   1  UNL1       -0.2769
      3 C         139.8077  145.9588  161.1798 C.3     1  UNL1        0.0950
      4 C         139.3458  145.4496  162.5129 C.3     1  UNL1        0.0375
      5 C         139.5361  144.0055  162.8712 C.3     1  UNL1        0.0612
      6 C         140.1882  143.0705  161.8963 C.3     1  UNL1        0.0375
      7 C         140.6501  143.5797  160.5631 C.3     1  UNL1        0.0950
      8 N         140.4677  147.1102  155.3543 N.pl3   1  UNL1       -0.3278
      9 C         140.9253  146.4920  156.6420 C.ar    1  UNL1        0.2099
     10 N         140.0491  146.1162  157.8000 N.ar    1  UNL1       -0.1804
     11 C         140.9217  145.5330  158.8716 C.ar    1  UNL1        0.2395
     12 N         142.3374  145.5482  158.3759 N.ar    1  UNL1       -0.1349
     13 N         142.3396  146.1409  156.9980 N.ar    1  UNL1       -0.2453
     14 H         139.5129  147.3044  155.2134 H       1  UNL1        0.1451
     15 H         141.1222  147.3217  154.6499 H       1  UNL1        0.1451
     16 H         143.1305  146.2758  156.4274 H       1  UNL1        0.1919
     17 C         137.7246  142.8549  164.3357 C.3     1  UNL1        0.0770
     18 C         137.4495  141.5422  163.6639 C.3     1  UNL1        0.0437
     19 C         138.3468  140.3673  163.9176 C.ar    1  UNL1       -0.0207
     20 C         138.2882  139.6491  165.2332 C.ar    1  UNL1       -0.0034
     21 C         139.1855  138.4742  165.4869 C.ar    1  UNL1        0.0111
     22 C         140.1415  138.0174  164.4250 C.ar    1  UNL1        0.0577
     23 CL        141.0388  136.8425  164.6787 Cl      1  UNL1       -0.0822
     24 C         140.2001  138.7356  163.1094 C.ar    1  UNL1        0.0111
     25 C         139.3027  139.9106  162.8558 C.ar    1  UNL1       -0.0034
     26 C         139.9618  143.6287  165.4063 C.3     1  UNL1        0.0991
     27 C         140.6922  142.4299  165.9349 C.ar    1  UNL1       -0.0053
     28 C         140.4037  141.9254  167.3178 C.ar    1  UNL1       -0.0029
     29 C         141.1341  140.7267  167.8464 C.ar    1  UNL1        0.0006
     30 C         142.1530  140.0323  166.9921 C.ar    1  UNL1        0.0114
     31 C         142.4415  140.5368  165.6093 C.ar    1  UNL1        0.0574
     32 CL        143.4604  139.8424  164.7550 Cl      1  UNL1       -0.0823
     33 C         141.7111  141.7356  165.0806 C.ar    1  UNL1        0.0085
@<TRIPOS>BOND
     1     8     9    1
     2     9    10   ar
     3    10    11   ar
     4    11     2    1
     5     2     3    1
     6     3     4    1
     7     4     5    1
     8     5     1    1
     9     1    17    1
    10    17    18    1
    11    18    19    1
    12    19    20   ar
    13    20    21   ar
    14    21    22   ar
    15    22    23    1
    16    22    24   ar
    17    24    25   ar
    18     1    26    1
    19    26    27    1
    20    27    28   ar
    21    28    29   ar
    22    29    30   ar
    23    30    31   ar
    24    31    32    1
    25    31    33   ar
    26     5     6    1
    27     6     7    1
    28    11    12   ar
    29    12    13   ar
    30    13     9   ar
    31     7     2    1
    32    25    19   ar
    33    33    27   ar
    34     8    14    1
    35     8    15    1
    36    13    16    1
@<TRIPOS>MOLECULE
*****
 33 36 0 0 0
SMALL
GASTEIGER

@<TRIPOS>ATOM
      1 N         138.1599  140.7792  162.3288 N.3     1  UNL1       -0.2698
      2 N         140.0557  143.7452  159.5255 N.pl3   1  UNL1       -0.2769
      3 C         139.0621  142.7498  159.0042 C.3     1  UNL1        0.0950
      4 C         138.4301  141.7612  159.9386 C.3     1  UNL1        0.0375
      5 C         138.7919  141.7679  161.3943 C.3     1  UNL1        0.0612
      6 C         139.7855  142.7633  161.9156 C.3     1  UNL1        0.0375
      7 C         140.4175  143.7519  160.9812 C.3     1  UNL1        0.0950
      8 N         140.7880  147.1244  155.5348 N.pl3   1  UNL1       -0.3278
      9 C         141.0243  146.2872  156.7567 C.ar    1  UNL1        0.2099
     10 N         140.0303  145.3666  157.4004 N.ar    1  UNL1       -0.1804
     11 C         140.6877  144.7339  158.5910 C.ar    1  UNL1        0.2395
     12 N         142.0881  145.2636  158.6832 N.ar    1  UNL1       -0.1349
     13 N         142.2961  146.2235  157.5495 N.ar    1  UNL1       -0.2453
     14 H         139.9145  147.0982  155.0814 H       1  UNL1        0.1451
     15 H         141.5064  147.7003  155.1861 H       1  UNL1        0.1451
     16 H         143.1223  146.7239  157.3592 H       1  UNL1        0.1919
     17 C         137.9880  139.3507  161.9049 C.3     1  UNL1        0.0770
     18 C         139.1901  138.4714  161.7264 C.3     1  UNL1        0.0437
     19 C         140.2542  138.4322  162.7828 C.ar    1  UNL1       -0.0207
     20 C         141.3284  139.4790  162.8046 C.ar    1  UNL1       -0.0034
     21 C         142.3925  139.4398  163.8611 C.ar    1  UNL1        0.0111
     22 C         142.3824  138.3538  164.8958 C.ar    1  UNL1        0.0577
     23 CL        143.4465  138.3146  165.9523 Cl      1  UNL1       -0.0822
     24 C         141.3082  137.3071  164.8741 C.ar    1  UNL1        0.0111
     25 C         140.2441  137.3463  163.8175 C.ar    1  UNL1       -0.0034
     26 C         137.6998  141.2191  163.6870 C.3     1  UNL1        0.0991
     27 C         138.4684  140.8094  164.9083 C.ar    1  UNL1       -0.0053
     28 C         138.0403  139.6063  165.6953 C.ar    1  UNL1       -0.0029
     29 C         138.8088  139.1966  166.9165 C.ar    1  UNL1        0.0006
     30 C         140.0054  139.9901  167.3508 C.ar    1  UNL1        0.0114
     31 C         140.4335  141.1931  166.5639 C.ar    1  UNL1        0.0574
     32 CL        141.6301  141.9866  166.9982 Cl      1  UNL1       -0.0823
     33 C         139.6650  141.6029  165.3426 C.ar    1  UNL1        0.0085
@<TRIPOS>BOND
     1     8     9    1
     2     9    10   ar
     3    10    11   ar
     4    11     2    1
     5     2     3    1
     6     3     4    1
     7     4     5    1
     8     5     1    1
     9     1    17    1
    10    17    18    1
    11    18    19    1
    12    19    20   ar
    13    20    21   ar
    14    21    22   ar
    15    22    23    1
    16    22    24   ar
    17    24    25   ar
    18     1    26    1
    19    26    27    1
    20    27    28   ar
    21    28    29   ar
    22    29    30   ar
    23    30    31   ar
    24    31    32    1
    25    31    33   ar
    26     5     6    1
    27     6     7    1
    28    11    12   ar
    29    12    13   ar
    30    13     9   ar
    31     7     2    1
    32    25    19   ar
    33    33    27   ar
    34     8    14    1
    35     8    15    1
    36    13    16    1
@<TRIPOS>MOLECULE
*****
 33 36 0 0 0
SMALL
GASTEIGER

@<TRIPOS>ATOM
      1 N         141.2471  143.5263  164.6529 N.3     1  UNL1       -0.2698
      2 N         141.2005  145.0169  160.4073 N.pl3   1  UNL1       -0.2769
      3 C         140.2932  145.6352  161.4292 C.3     1  UNL1        0.0950
      4 C         140.3087  145.1383  162.8444 C.3     1  UNL1        0.0375
      5 C         141.2316  144.0231  163.2377 C.3     1  UNL1        0.0612
      6 C         142.1389  143.4048  162.2157 C.3     1  UNL1        0.0375
      7 C         142.1233  143.9017  160.8005 C.3     1  UNL1        0.0950
      8 N         139.5239  146.5313  155.6347 N.pl3   1  UNL1       -0.3278
      9 C         140.4143  146.2098  156.7983 C.ar    1  UNL1        0.2099
     10 N         139.9676  145.6950  158.1345 N.ar    1  UNL1       -0.1804
     11 C         141.1849  145.5137  158.9920 C.ar    1  UNL1        0.2395
     12 N         142.3840  145.9166  158.1858 N.ar    1  UNL1       -0.1349
     13 N         141.9077  146.3468  156.8300 N.ar    1  UNL1       -0.2453
     14 H         138.5502  146.4078  155.7112 H       1  UNL1        0.1451
     15 H         139.9132  146.8657  154.7946 H       1  UNL1        0.1451
     16 H         142.4756  146.6635  156.0908 H       1  UNL1        0.1919
     17 C         139.9638  143.4079  165.4204 C.3     1  UNL1        0.0770
     18 C         138.9646  142.3513  165.0525 C.3     1  UNL1        0.0437
     19 C         139.4290  140.9674  164.7078 C.ar    1  UNL1       -0.0207
     20 C         139.9327  140.6674  163.3271 C.ar    1  UNL1       -0.0034
     21 C         140.3971  139.2835  162.9823 C.ar    1  UNL1        0.0111
     22 C         140.3580  138.1994  164.0183 C.ar    1  UNL1        0.0577
     23 CL        140.8224  136.8154  163.6735 Cl      1  UNL1       -0.0822
     24 C         139.8543  138.4993  165.3990 C.ar    1  UNL1        0.0111
     25 C         139.3899  139.8833  165.7437 C.ar    1  UNL1       -0.0034
     26 C         142.5460  143.1477  165.3007 C.3     1  UNL1        0.0991
     27 C         142.8215  141.7147  165.6477 C.ar    1  UNL1       -0.0053
     28 C         143.3955  140.7900  164.6155 C.ar    1  UNL1       -0.0029
     29 C         143.6710  139.3570  164.9625 C.ar    1  UNL1        0.0006
     30 C         143.3724  138.8485  166.3418 C.ar    1  UNL1        0.0114
     31 C         142.7984  139.7732  167.3740 C.ar    1  UNL1        0.0574
     32 CL        142.4998  139.2647  168.7533 Cl      1  UNL1       -0.0823
     33 C         142.5229  141.2063  167.0270 C.ar    1  UNL1        0.0085
@<TRIPOS>BOND
     1     8     9    1
     2     9    10   ar
     3    10    11   ar
     4    11     2    1
     5     2     3    1
     6     3     4    1
     7     4     5    1
     8     5     1    1
     9     1    17    1
    10    17    18    1
    11    18    19    1
    12    19    20   ar
    13    20    21   ar
    14    21    22   ar
    15    22    23    1
    16    22    24   ar
    17    24    25   ar
    18     1    26    1
    19    26    27    1
    20    27    28   ar
    21    28    29   ar
    22    29    30   ar
    23    30    31   ar
    24    31    32    1
    25    31    33   ar
    26     5     6    1
    27     6     7    1
    28    11    12   ar
    29    12    13   ar
    30    13     9   ar
    31     7     2    1
    32    25    19   ar
    33    33    27   ar
    34     8    14    1
    35     8    15    1
    36    13    16    1
@<TRIPOS>MOLECULE
*****
 33 36 0 0 0
SMALL
GASTEIGER

@<TRIPOS>ATOM
      1 N         141.2299  143.5930  164.5640 N.3     1  UNL1       -0.2698
      2 N         141.1631  145.0751  160.3156 N.pl3   1  UNL1       -0.2769
      3 C         142.0987  143.9710  160.7101 C.3     1  UNL1        0.0950
      4 C         142.1210  143.4770  162.1262 C.3     1  UNL1        0.0375
      5 C         141.2076  144.0870  163.1478 C.3     1  UNL1        0.0612
      6 C         140.2720  145.1911  162.7533 C.3     1  UNL1        0.0375
      7 C         140.2497  145.6851  161.3372 C.3     1  UNL1        0.0950
      8 N         139.4607  146.8281  155.6348 N.pl3   1  UNL1       -0.3278
      9 C         140.3582  146.3749  156.7479 C.ar    1  UNL1        0.2099
     10 N         139.9172  145.9332  158.1118 N.ar    1  UNL1       -0.1804
     11 C         141.1408  145.5691  158.8994 C.ar    1  UNL1        0.2395
     12 N         142.3381  145.7859  158.0223 N.ar    1  UNL1       -0.1349
     13 N         141.8545  146.2839  156.6926 N.ar    1  UNL1       -0.2453
     14 H         138.4856  146.8536  155.7681 H       1  UNL1        0.1451
     15 H         139.8468  147.1000  154.7709 H       1  UNL1        0.1451
     16 H         142.4199  146.5111  155.9193 H       1  UNL1        0.1919
     17 C         140.0237  143.7676  165.4384 C.3     1  UNL1        0.0770
     18 C         138.7452  143.0583  165.1030 C.3     1  UNL1        0.0437
     19 C         138.7782  141.6328  164.6376 C.ar    1  UNL1       -0.0207
     20 C         138.7357  141.3214  163.1709 C.ar    1  UNL1       -0.0034
     21 C         138.7687  139.8958  162.7056 C.ar    1  UNL1        0.0111
     22 C         138.8442  138.7815  163.7069 C.ar    1  UNL1        0.0577
     23 CL        138.8772  137.3560  163.2416 Cl      1  UNL1       -0.0822
     24 C         138.8867  139.0929  165.1737 C.ar    1  UNL1        0.0111
     25 C         138.8537  140.5185  165.6390 C.ar    1  UNL1       -0.0034
     26 C         142.4585  142.9243  165.1058 C.3     1  UNL1        0.0991
     27 C         142.4808  141.4365  165.2951 C.ar    1  UNL1       -0.0053
     28 C         142.5379  140.8571  166.6776 C.ar    1  UNL1       -0.0029
     29 C         142.5603  139.3693  166.8670 C.ar    1  UNL1        0.0006
     30 C         142.5256  138.4608  165.6740 C.ar    1  UNL1        0.0114
     31 C         142.4685  139.0400  164.2916 C.ar    1  UNL1        0.0574
     32 CL        142.4338  138.1315  163.0985 Cl      1  UNL1       -0.0823
     33 C         142.4461  140.5279  164.1021 C.ar    1  UNL1        0.0085
@<TRIPOS>BOND
     1     8     9    1
     2     9    10   ar
     3    10    11   ar
     4    11     2    1
     5     2     3    1
     6     3     4    1
     7     4     5    1
     8     5     1    1
     9     1    17    1
    10    17    18    1
    11    18    19    1
    12    19    20   ar
    13    20    21   ar
    14    21    22   ar
    15    22    23    1
    16    22    24   ar
    17    24    25   ar
    18     1    26    1
    19    26    27    1
    20    27    28   ar
    21    28    29   ar
    22    29    30   ar
    23    30    31   ar
    24    31    32    1
    25    31    33   ar
    26     5     6    1
    27     6     7    1
    28    11    12   ar
    29    12    13   ar
    30    13     9   ar
    31     7     2    1
    32    25    19   ar
    33    33    27   ar
    34     8    14    1
    35     8    15    1
    36    13    16    1
@<TRIPOS>MOLECULE
*****
 33 36 0 0 0
SMALL
GASTEIGER

@<TRIPOS>ATOM
      1 N         139.4261  138.3251  161.5488 N.3     1  UNL1       -0.2698
      2 N         142.5164  139.0554  158.3603 N.pl3   1  UNL1       -0.2769
      3 C         142.8881  139.1819  159.8080 C.3     1  UNL1        0.0950
      4 C         141.8580  138.9384  160.8708 C.3     1  UNL1        0.0375
      5 C         140.4562  138.5685  160.4859 C.3     1  UNL1        0.0612
      6 C         140.0845  138.4421  159.0383 C.3     1  UNL1        0.0375
      7 C         141.1146  138.6855  157.9755 C.3     1  UNL1        0.0950
      8 N         145.0704  139.0147  153.7390 N.pl3   1  UNL1       -0.3278
      9 C         144.7204  139.2801  155.1732 C.ar    1  UNL1        0.2099
     10 N         143.4867  138.8056  155.8821 N.ar    1  UNL1       -0.1804
     11 C         143.5465  139.2989  157.2975 C.ar    1  UNL1        0.2395
     12 N         144.8173  140.0784  157.4633 N.ar    1  UNL1       -0.1349
     13 N         145.5428  140.0668  156.1505 N.ar    1  UNL1       -0.2453
     14 H         144.4629  138.4845  153.1741 H       1  UNL1        0.1451
     15 H         145.9075  139.3707  153.3626 H       1  UNL1        0.1451
     16 H         146.4070  140.4996  155.9631 H       1  UNL1        0.1919
     17 C         138.0030  138.7420  161.3235 C.3     1  UNL1        0.0770
     18 C         137.6630  140.1944  161.1654 C.3     1  UNL1        0.0437
     19 C         138.1253  141.1887  162.1889 C.ar    1  UNL1       -0.0207
     20 C         137.3256  141.4046  163.4394 C.ar    1  UNL1       -0.0034
     21 C         137.7879  142.3989  164.4630 C.ar    1  UNL1        0.0111
     22 C         139.0499  143.1773  164.2360 C.ar    1  UNL1        0.0577
     23 CL        139.5122  144.1716  165.2595 Cl      1  UNL1       -0.0822
     24 C         139.8496  142.9614  162.9854 C.ar    1  UNL1        0.0111
     25 C         139.3872  141.9670  161.9619 C.ar    1  UNL1       -0.0034
     26 C         139.8192  137.6647  162.8370 C.3     1  UNL1        0.0991
     27 C         139.7066  138.4164  164.1301 C.ar    1  UNL1       -0.0053
     28 C         140.6898  139.5018  164.4547 C.ar    1  UNL1       -0.0029
     29 C         140.5773  140.2536  165.7478 C.ar    1  UNL1        0.0006
     30 C         139.4815  139.9200  166.7163 C.ar    1  UNL1        0.0114
     31 C         138.4984  138.8347  166.3918 C.ar    1  UNL1        0.0574
     32 CL        137.4026  138.5011  167.3603 Cl      1  UNL1       -0.0823
     33 C         138.6109  138.0829  165.0986 C.ar    1  UNL1        0.0085
@<TRIPOS>BOND
     1     8     9    1
     2     9    10   ar
     3    10    11   ar
     4    11     2    1
     5     2     3    1
     6     3     4    1
     7     4     5    1
     8     5     1    1
     9     1    17    1
    10    17    18    1
    11    18    19    1
    12    19    20   ar
    13    20    21   ar
    14    21    22   ar
    15    22    23    1
    16    22    24   ar
    17    24    25   ar
    18     1    26    1
    19    26    27    1
    20    27    28   ar
    21    28    29   ar
    22    29    30   ar
    23    30    31   ar
    24    31    32    1
    25    31    33   ar
    26     5     6    1
    27     6     7    1
    28    11    12   ar
    29    12    13   ar
    30    13     9   ar
    31     7     2    1
    32    25    19   ar
    33    33    27   ar
    34     8    14    1
    35     8    15    1
    36    13    16    1
