@<TRIPOS>MOLECULE
*****
 29 33 0 0 0
SMALL
GASTEIGER

@<TRIPOS>ATOM
      1 C         139.8029  141.2397  166.4416 C.ar    1  UNL1        0.0200
      2 C         139.2879  140.0116  165.7514 C.ar    1  UNL1        0.1006
      3 N         139.1164  140.0050  164.2613 N.ar    1  UNL1       -0.2246
      4 C         139.4600  141.2265  163.4614 C.ar    1  UNL1        0.1702
      5 N         139.3954  141.5140  161.9905 N.ar    1  UNL1       -0.2052
      6 C         139.8705  142.9198  161.7718 C.ar    1  UNL1        0.1647
      7 S         140.2288  143.5011  163.1074 S.2     1  UNL1       -0.0499
      8 C         139.9751  142.4546  164.1516 C.ar    1  UNL1        0.0679
      9 C         140.1466  142.4612  165.6417 C.ar    1  UNL1        0.0112
     10 C         140.9507  142.3347  170.0795 C.ar    1  UNL1        0.2250
     11 C         140.7792  142.3280  168.5893 C.ar    1  UNL1        0.0578
     12 C         139.9744  141.2464  167.9318 C.ar    1  UNL1        0.0077
     13 C         139.3411  140.1713  168.7644 C.ar    1  UNL1        0.0209
     14 C         139.5125  140.1780  170.2546 C.ar    1  UNL1        0.1021
     15 N         140.3173  141.2596  170.9121 N.ar    1  UNL1       -0.2101
     16 C         143.2534  143.3379  170.7436 C.3     1  UNL1        0.2542
     17 O         141.7554  143.4163  170.7371 O.3     1  UNL1       -0.4561
     18 N         139.9699  143.6213  160.4496 N.pl3   1  UNL1       -0.2880
     19 C         140.6132  144.9737  160.3646 C.3     1  UNL1        0.0940
     20 C         140.7127  145.6751  159.0424 C.3     1  UNL1        0.0375
     21 C         140.1688  145.0242  157.8054 C.3     1  UNL1        0.0609
     22 C         139.5254  143.6718  157.8904 C.3     1  UNL1        0.0375
     23 C         139.4260  142.9704  159.2125 C.3     1  UNL1        0.0940
     24 N         140.2682  145.7256  156.4831 N.3     1  UNL1       -0.2738
     25 C         141.1956  145.2046  155.4256 C.3     1  UNL1        0.0720
     26 C         141.2951  145.9060  154.1035 C.3     1  UNL1        0.0174
     27 C         140.4671  147.1284  153.8388 C.3     1  UNL1        0.0029
     28 C         139.5396  147.6494  154.8964 C.3     1  UNL1        0.0174
     29 C         139.4402  146.9481  156.2185 C.3     1  UNL1        0.0720
@<TRIPOS>BOND
     1    16    17    1
     2    17    10    1
     3    10    11   ar
     4    11    12   ar
     5    12     1    1
     6     1     2   ar
     7     2     3   ar
     8     3     4   ar
     9     4     5   ar
    10     5     6   ar
    11     6    18    1
    12    18    19    1
    13    19    20    1
    14    20    21    1
    15    21    24    1
    16    24    25    1
    17    25    26    1
    18    26    27    1
    19    27    28    1
    20    28    29    1
    21    21    22    1
    22    22    23    1
    23     6     7   ar
    24     7     8   ar
    25     8     9   ar
    26    12    13   ar
    27    13    14   ar
    28    14    15   ar
    29    15    10   ar
    30     9     1   ar
    31     8     4   ar
    32    23    18    1
    33    29    24    1
@<TRIPOS>MOLECULE
*****
 29 33 0 0 0
SMALL
GASTEIGER

@<TRIPOS>ATOM
      1 C         139.9556  145.5664  157.1372 C.ar    1  UNL1        0.0200
      2 C         139.6116  144.1588  156.7495 C.ar    1  UNL1        0.1006
      3 N         139.7376  143.0521  157.7540 N.ar    1  UNL1       -0.2246
      4 C         140.2077  143.3528  159.1463 C.ar    1  UNL1        0.1702
      5 N         140.4288  142.4752  160.3426 N.ar    1  UNL1       -0.2052
      6 C         140.9094  143.3404  161.4697 C.ar    1  UNL1        0.1647
      7 S         140.9854  144.7527  160.9700 S.2     1  UNL1       -0.0499
      8 C         140.5518  144.7604  159.5341 C.ar    1  UNL1        0.0679
      9 C         140.4257  145.8671  158.5296 C.ar    1  UNL1        0.0112
     10 C         138.8686  148.9861  155.4418 C.ar    1  UNL1        0.2250
     11 C         138.9947  147.8792  156.4464 C.ar    1  UNL1        0.0578
     12 C         139.8296  146.6732  156.1327 C.ar    1  UNL1        0.0077
     13 C         140.5384  146.5739  154.8145 C.ar    1  UNL1        0.0209
     14 C         140.4124  147.6807  153.8099 C.ar    1  UNL1        0.1021
     15 N         139.5775  148.8868  154.1236 N.ar    1  UNL1       -0.2101
     16 C         138.5186  151.5596  155.3747 C.3     1  UNL1        0.2542
     17 O         138.0338  150.1921  155.7555 O.3     1  UNL1       -0.4561
     18 N         141.2536  142.8751  162.8536 N.pl3   1  UNL1       -0.2880
     19 C         142.4257  143.4711  163.5754 C.3     1  UNL1        0.0940
     20 C         142.7699  143.0059  164.9592 C.3     1  UNL1        0.0375
     21 C         141.9421  141.9446  165.6212 C.3     1  UNL1        0.0609
     22 C         140.7700  141.3485  164.8994 C.3     1  UNL1        0.0375
     23 C         140.4258  141.8138  163.5156 C.3     1  UNL1        0.0940
     24 N         142.2863  141.4792  167.0051 N.3     1  UNL1       -0.2738
     25 C         141.9360  140.0860  167.4367 C.3     1  UNL1        0.0720
     26 C         142.2802  139.6207  168.8205 C.3     1  UNL1        0.0174
     27 C         142.9747  140.5485  169.7727 C.3     1  UNL1        0.0029
     28 C         143.3250  141.9417  169.3411 C.3     1  UNL1        0.0174
     29 C         142.9808  142.4071  167.9573 C.3     1  UNL1        0.0720
@<TRIPOS>BOND
     1    16    17    1
     2    17    10    1
     3    10    11   ar
     4    11    12   ar
     5    12     1    1
     6     1     2   ar
     7     2     3   ar
     8     3     4   ar
     9     4     5   ar
    10     5     6   ar
    11     6    18    1
    12    18    19    1
    13    19    20    1
    14    20    21    1
    15    21    24    1
    16    24    25    1
    17    25    26    1
    18    26    27    1
    19    27    28    1
    20    28    29    1
    21    21    22    1
    22    22    23    1
    23     6     7   ar
    24     7     8   ar
    25     8     9   ar
    26    12    13   ar
    27    13    14   ar
    28    14    15   ar
    29    15    10   ar
    30     9     1   ar
    31     8     4   ar
    32    23    18    1
    33    29    24    1
@<TRIPOS>MOLECULE
*****
 29 33 0 0 0
SMALL
GASTEIGER

@<TRIPOS>ATOM
      1 C         140.4095  141.8423  166.4298 C.ar    1  UNL1        0.0200
      2 C         140.5272  143.1359  165.6798 C.ar    1  UNL1        0.1006
      3 N         140.7547  143.1251  164.1972 N.ar    1  UNL1       -0.2246
      4 C         140.8644  141.8208  163.4647 C.ar    1  UNL1        0.1702
      5 N         141.0860  141.4985  162.0165 N.ar    1  UNL1       -0.2052
      6 C         141.1051  140.0056  161.8716 C.ar    1  UNL1        0.1647
      7 S         140.8954  139.4053  163.2302 S.2     1  UNL1       -0.0499
      8 C         140.7466  140.5272  164.2147 C.ar    1  UNL1        0.0679
      9 C         140.5191  140.5379  165.6973 C.ar    1  UNL1        0.0112
     10 C         139.3292  140.6770  170.0666 C.ar    1  UNL1        0.2250
     11 C         139.5567  140.6663  168.5839 C.ar    1  UNL1        0.0578
     12 C         140.1820  141.8529  167.9125 C.ar    1  UNL1        0.0077
     13 C         140.5798  143.0503  168.7237 C.ar    1  UNL1        0.0209
     14 C         140.3523  143.0611  170.2063 C.ar    1  UNL1        0.1021
     15 N         139.7270  141.8744  170.8777 N.ar    1  UNL1       -0.2101
     16 C         137.2203  139.2823  170.6642 C.3     1  UNL1        0.2542
     17 O         138.7040  139.4903  170.7380 O.3     1  UNL1       -0.4561
     18 N         141.2998  139.2463  160.5926 N.pl3   1  UNL1       -0.2880
     19 C         142.6210  138.6004  160.2976 C.3     1  UNL1        0.0940
     20 C         142.8157  137.8411  159.0187 C.3     1  UNL1        0.0375
     21 C         141.6892  137.7277  158.0349 C.3     1  UNL1        0.0609
     22 C         140.3679  138.3737  158.3300 C.3     1  UNL1        0.0375
     23 C         140.1732  139.1329  159.6088 C.3     1  UNL1        0.0940
     24 N         141.8838  136.9684  156.7560 N.3     1  UNL1       -0.2738
     25 C         143.1387  136.1761  156.5378 C.3     1  UNL1        0.0720
     26 C         143.3334  135.4168  155.2589 C.3     1  UNL1        0.0174
     27 C         142.2732  135.4499  154.1983 C.3     1  UNL1        0.0029
     28 C         141.0184  136.2422  154.4165 C.3     1  UNL1        0.0174
     29 C         140.8237  137.0015  155.6954 C.3     1  UNL1        0.0720
@<TRIPOS>BOND
     1    16    17    1
     2    17    10    1
     3    10    11   ar
     4    11    12   ar
     5    12     1    1
     6     1     2   ar
     7     2     3   ar
     8     3     4   ar
     9     4     5   ar
    10     5     6   ar
    11     6    18    1
    12    18    19    1
    13    19    20    1
    14    20    21    1
    15    21    24    1
    16    24    25    1
    17    25    26    1
    18    26    27    1
    19    27    28    1
    20    28    29    1
    21    21    22    1
    22    22    23    1
    23     6     7   ar
    24     7     8   ar
    25     8     9   ar
    26    12    13   ar
    27    13    14   ar
    28    14    15   ar
    29    15    10   ar
    30     9     1   ar
    31     8     4   ar
    32    23    18    1
    33    29    24    1
@<TRIPOS>MOLECULE
*****
 29 33 0 0 0
SMALL
GASTEIGER

@<TRIPOS>ATOM
      1 C         140.0661  141.1856  166.5072 C.ar    1  UNL1        0.0200
      2 C         139.8787  139.8858  165.7824 C.ar    1  UNL1        0.1006
      3 N         139.8133  139.8653  164.2840 N.ar    1  UNL1       -0.2246
      4 C         139.9353  141.1446  163.5104 C.ar    1  UNL1        0.1702
      5 N         139.9084  141.4342  162.0387 N.ar    1  UNL1       -0.2052
      6 C         140.0792  142.9129  161.8541 C.ar    1  UNL1        0.1647
      7 S         140.2117  143.5373  163.2116 S.2     1  UNL1       -0.0499
      8 C         140.1227  142.4444  164.2352 C.ar    1  UNL1        0.0679
      9 C         140.1881  142.4649  165.7336 C.ar    1  UNL1        0.0112
     10 C         139.3593  140.2739  170.3045 C.ar    1  UNL1        0.2250
     11 C         139.2939  140.2534  168.8060 C.ar    1  UNL1        0.0578
     12 C         140.1315  141.2061  168.0056 C.ar    1  UNL1        0.0077
     13 C         141.0347  142.1793  168.7036 C.ar    1  UNL1        0.0209
     14 C         141.1001  142.1999  170.2020 C.ar    1  UNL1        0.1021
     15 N         140.2624  141.2471  171.0025 N.ar    1  UNL1       -0.2101
     16 C         137.0642  139.1576  170.7904 C.3     1  UNL1        0.2542
     17 O         138.5217  139.3212  171.1049 O.3     1  UNL1       -0.4561
     18 N         140.1119  143.6398  160.5423 N.pl3   1  UNL1       -0.2880
     19 C         140.5965  145.0581  160.4827 C.3     1  UNL1        0.0940
     20 C         140.6292  145.7849  159.1710 C.3     1  UNL1        0.0375
     21 C         140.1773  145.0934  157.9190 C.3     1  UNL1        0.0609
     22 C         139.6927  143.6751  157.9786 C.3     1  UNL1        0.0375
     23 C         139.6600  142.9483  159.2903 C.3     1  UNL1        0.0940
     24 N         140.2099  145.8203  156.6072 N.3     1  UNL1       -0.2738
     25 C         141.0756  145.3151  155.4912 C.3     1  UNL1        0.0720
     26 C         141.1083  146.0419  154.1795 C.3     1  UNL1        0.0174
     27 C         140.2753  147.2738  153.9837 C.3     1  UNL1        0.0029
     28 C         139.4096  147.7790  155.0997 C.3     1  UNL1        0.0174
     29 C         139.3769  147.0522  156.4114 C.3     1  UNL1        0.0720
@<TRIPOS>BOND
     1    16    17    1
     2    17    10    1
     3    10    11   ar
     4    11    12   ar
     5    12     1    1
     6     1     2   ar
     7     2     3   ar
     8     3     4   ar
     9     4     5   ar
    10     5     6   ar
    11     6    18    1
    12    18    19    1
    13    19    20    1
    14    20    21    1
    15    21    24    1
    16    24    25    1
    17    25    26    1
    18    26    27    1
    19    27    28    1
    20    28    29    1
    21    21    22    1
    22    22    23    1
    23     6     7   ar
    24     7     8   ar
    25     8     9   ar
    26    12    13   ar
    27    13    14   ar
    28    14    15   ar
    29    15    10   ar
    30     9     1   ar
    31     8     4   ar
    32    23    18    1
    33    29    24    1
@<TRIPOS>MOLECULE
*****
 29 33 0 0 0
SMALL
GASTEIGER

@<TRIPOS>ATOM
      1 C         140.2200  140.8657  166.1683 C.ar    1  UNL1        0.0200
      2 C         139.0864  140.2781  165.3812 C.ar    1  UNL1        0.1006
      3 N         139.2165  140.1003  163.8975 N.ar    1  UNL1       -0.2246
      4 C         140.4802  140.5100  163.2009 C.ar    1  UNL1        0.1702
      5 N         140.8952  140.4557  161.7604 N.ar    1  UNL1       -0.2052
      6 C         142.2853  141.0097  161.6574 C.ar    1  UNL1        0.1647
      7 S         142.7294  141.4064  163.0342 S.2     1  UNL1       -0.0499
      8 C         141.6138  141.0975  163.9881 C.ar    1  UNL1        0.0679
      9 C         141.4837  141.2754  165.4718 C.ar    1  UNL1        0.0112
     10 C         140.7222  142.3107  169.8304 C.ar    1  UNL1        0.2250
     11 C         140.8523  142.1328  168.3466 C.ar    1  UNL1        0.0578
     12 C         140.0899  141.0436  167.6521 C.ar    1  UNL1        0.0077
     13 C         139.1975  140.1321  168.4413 C.ar    1  UNL1        0.0209
     14 C         139.0674  140.3100  169.9250 C.ar    1  UNL1        0.1021
     15 N         139.8298  141.3993  170.6196 N.ar    1  UNL1       -0.2101
     16 C         142.9722  143.2909  170.6827 C.3     1  UNL1        0.2542
     17 O         141.4845  143.3999  170.5248 O.3     1  UNL1       -0.4561
     18 N         143.0901  141.1436  160.3986 N.pl3   1  UNL1       -0.2880
     19 C         143.0493  140.0588  159.3635 C.3     1  UNL1        0.0940
     20 C         143.8540  140.1926  158.1047 C.3     1  UNL1        0.0375
     21 C         144.6995  141.4112  157.8811 C.3     1  UNL1        0.0609
     22 C         144.7403  142.4960  158.9163 C.3     1  UNL1        0.0375
     23 C         143.9356  142.3622  160.1750 C.3     1  UNL1        0.0940
     24 N         145.5043  141.5451  156.6223 N.3     1  UNL1       -0.2738
     25 C         145.0611  140.8466  155.3710 C.3     1  UNL1        0.0720
     26 C         145.8658  140.9804  154.1123 C.3     1  UNL1        0.0174
     27 C         147.1137  141.8127  154.1048 C.3     1  UNL1        0.0029
     28 C         147.5568  142.5112  155.3561 C.3     1  UNL1        0.0174
     29 C         146.7521  142.3773  156.6149 C.3     1  UNL1        0.0720
@<TRIPOS>BOND
     1    16    17    1
     2    17    10    1
     3    10    11   ar
     4    11    12   ar
     5    12     1    1
     6     1     2   ar
     7     2     3   ar
     8     3     4   ar
     9     4     5   ar
    10     5     6   ar
    11     6    18    1
    12    18    19    1
    13    19    20    1
    14    20    21    1
    15    21    24    1
    16    24    25    1
    17    25    26    1
    18    26    27    1
    19    27    28    1
    20    28    29    1
    21    21    22    1
    22    22    23    1
    23     6     7   ar
    24     7     8   ar
    25     8     9   ar
    26    12    13   ar
    27    13    14   ar
    28    14    15   ar
    29    15    10   ar
    30     9     1   ar
    31     8     4   ar
    32    23    18    1
    33    29    24    1
@<TRIPOS>MOLECULE
*****
 29 33 0 0 0
SMALL
GASTEIGER

@<TRIPOS>ATOM
      1 C         141.4269  139.7423  166.8821 C.ar    1  UNL1        0.0200
      2 C         142.7809  139.0970  166.8725 C.ar    1  UNL1        0.1006
      3 N         143.3481  138.5631  165.5906 N.ar    1  UNL1       -0.2246
      4 C         142.5613  138.6746  164.3184 C.ar    1  UNL1        0.1702
      5 N         142.8592  138.2431  162.9129 N.ar    1  UNL1       -0.2052
      6 C         141.6892  138.6218  162.0540 C.ar    1  UNL1        0.1647
      7 S         140.6683  139.2873  162.9286 S.2     1  UNL1       -0.0499
      8 C         141.2073  139.3199  164.3281 C.ar    1  UNL1        0.0679
      9 C         140.6401  139.8538  165.6099 C.ar    1  UNL1        0.0112
     10 C         141.1251  141.6983  170.3222 C.ar    1  UNL1        0.2250
     11 C         141.6923  141.1643  169.0402 C.ar    1  UNL1        0.0578
     12 C         140.8596  140.2763  168.1640 C.ar    1  UNL1        0.0077
     13 C         139.4596  139.9221  168.5696 C.ar    1  UNL1        0.0209
     14 C         138.8923  140.4560  169.8514 C.ar    1  UNL1        0.1021
     15 N         139.7251  141.3441  170.7277 N.ar    1  UNL1       -0.2101
     16 C         143.1965  143.2315  170.6512 C.3     1  UNL1        0.2542
     17 O         141.9578  142.5864  171.1984 O.3     1  UNL1       -0.4561
     18 N         141.5624  138.3779  160.5794 N.pl3   1  UNL1       -0.2880
     19 C         140.2653  138.6609  159.8813 C.3     1  UNL1        0.0940
     20 C         140.1384  138.4170  158.4067 C.3     1  UNL1        0.0375
     21 C         141.3087  137.8901  157.6303 C.3     1  UNL1        0.0609
     22 C         142.6058  137.6072  158.3284 C.3     1  UNL1        0.0375
     23 C         142.7327  137.8510  159.8030 C.3     1  UNL1        0.0940
     24 N         141.1819  137.6462  156.1556 N.3     1  UNL1       -0.2738
     25 C         141.3257  136.2563  155.6103 C.3     1  UNL1        0.0720
     26 C         141.1989  136.0123  154.1357 C.3     1  UNL1        0.0174
     27 C         140.9283  137.1583  153.2065 C.3     1  UNL1        0.0029
     28 C         140.7844  138.5482  153.7519 C.3     1  UNL1        0.0174
     29 C         140.9112  138.7922  155.2264 C.3     1  UNL1        0.0720
@<TRIPOS>BOND
     1    16    17    1
     2    17    10    1
     3    10    11   ar
     4    11    12   ar
     5    12     1    1
     6     1     2   ar
     7     2     3   ar
     8     3     4   ar
     9     4     5   ar
    10     5     6   ar
    11     6    18    1
    12    18    19    1
    13    19    20    1
    14    20    21    1
    15    21    24    1
    16    24    25    1
    17    25    26    1
    18    26    27    1
    19    27    28    1
    20    28    29    1
    21    21    22    1
    22    22    23    1
    23     6     7   ar
    24     7     8   ar
    25     8     9   ar
    26    12    13   ar
    27    13    14   ar
    28    14    15   ar
    29    15    10   ar
    30     9     1   ar
    31     8     4   ar
    32    23    18    1
    33    29    24    1
@<TRIPOS>MOLECULE
*****
 29 33 0 0 0
SMALL
GASTEIGER

@<TRIPOS>ATOM
      1 C         142.7042  141.8522  166.5957 C.ar    1  UNL1        0.0200
      2 C         143.7080  142.7752  165.9709 C.ar    1  UNL1        0.1006
      3 N         144.0969  142.5975  164.5331 N.ar    1  UNL1       -0.2246
      4 C         143.4821  141.4970  163.7203 C.ar    1  UNL1        0.1702
      5 N         143.6683  141.0804  162.2913 N.ar    1  UNL1       -0.2052
      6 C         142.7795  139.8999  162.0331 C.ar    1  UNL1        0.1647
      7 S         142.0441  139.5870  163.3025 S.2     1  UNL1       -0.0499
      8 C         142.4783  140.5740  164.3452 C.ar    1  UNL1        0.0679
      9 C         142.0894  140.7516  165.7829 C.ar    1  UNL1        0.0112
     10 C         140.5199  141.9228  169.9085 C.ar    1  UNL1        0.2250
     11 C         140.9089  141.7452  168.4707 C.ar    1  UNL1        0.0578
     12 C         142.3152  142.0298  168.0336 C.ar    1  UNL1        0.0077
     13 C         143.3326  142.4920  169.0342 C.ar    1  UNL1        0.0209
     14 C         142.9437  142.6696  170.4719 C.ar    1  UNL1        0.1021
     15 N         141.5373  142.3850  170.9091 N.ar    1  UNL1       -0.2101
     16 C         138.5191  140.2792  170.1222 C.3     1  UNL1        0.2542
     17 O         139.1135  141.6381  170.3456 O.3     1  UNL1       -0.4561
     18 N         142.6491  139.1620  160.7337 N.pl3   1  UNL1       -0.2880
     19 C         142.0196  139.8339  159.5495 C.3     1  UNL1        0.0940
     20 C         141.8892  139.0960  158.2501 C.3     1  UNL1        0.0375
     21 C         142.3882  137.6861  158.1349 C.3     1  UNL1        0.0609
     22 C         143.0177  137.0142  159.3191 C.3     1  UNL1        0.0375
     23 C         143.1481  137.7521  160.6185 C.3     1  UNL1        0.0940
     24 N         142.2578  136.9481  156.8355 N.3     1  UNL1       -0.2738
     25 C         140.9876  137.0431  156.0433 C.3     1  UNL1        0.0720
     26 C         140.8571  136.3052  154.7439 C.3     1  UNL1        0.0174
     27 C         141.9968  135.4723  154.2368 C.3     1  UNL1        0.0029
     28 C         143.2670  135.3773  155.0290 C.3     1  UNL1        0.0174
     29 C         143.3975  136.1152  156.3284 C.3     1  UNL1        0.0720
@<TRIPOS>BOND
     1    16    17    1
     2    17    10    1
     3    10    11   ar
     4    11    12   ar
     5    12     1    1
     6     1     2   ar
     7     2     3   ar
     8     3     4   ar
     9     4     5   ar
    10     5     6   ar
    11     6    18    1
    12    18    19    1
    13    19    20    1
    14    20    21    1
    15    21    24    1
    16    24    25    1
    17    25    26    1
    18    26    27    1
    19    27    28    1
    20    28    29    1
    21    21    22    1
    22    22    23    1
    23     6     7   ar
    24     7     8   ar
    25     8     9   ar
    26    12    13   ar
    27    13    14   ar
    28    14    15   ar
    29    15    10   ar
    30     9     1   ar
    31     8     4   ar
    32    23    18    1
    33    29    24    1
@<TRIPOS>MOLECULE
*****
 29 33 0 0 0
SMALL
GASTEIGER

@<TRIPOS>ATOM
      1 C         140.5458  141.2383  166.4317 C.ar    1  UNL1        0.0200
      2 C         140.6919  142.5763  165.7695 C.ar    1  UNL1        0.1006
      3 N         140.8812  142.6612  164.2840 N.ar    1  UNL1       -0.2246
      4 C         140.9245  141.4082  163.4606 C.ar    1  UNL1        0.1702
      5 N         141.0974  141.1803  161.9880 N.ar    1  UNL1       -0.2052
      6 C         141.0582  139.7015  161.7401 C.ar    1  UNL1        0.1647
      7 S         140.8611  139.0154  163.0594 S.2     1  UNL1       -0.0499
      8 C         140.7785  140.0702  164.1227 C.ar    1  UNL1        0.0679
      9 C         140.5892  139.9853  165.6082 C.ar    1  UNL1        0.0112
     10 C         141.0300  141.8867  170.3170 C.ar    1  UNL1        0.2250
     11 C         141.2194  141.9717  168.8314 C.ar    1  UNL1        0.0578
     12 C         140.3565  141.1533  167.9173 C.ar    1  UNL1        0.0077
     13 C         139.3043  140.2498  168.4887 C.ar    1  UNL1        0.0209
     14 C         139.1149  140.1648  169.9743 C.ar    1  UNL1        0.1021
     15 N         139.9778  140.9833  170.8885 N.ar    1  UNL1       -0.2101
     16 C         143.1683  143.3066  170.7194 C.3     1  UNL1        0.2542
     17 O         141.8929  142.7051  171.2311 O.3     1  UNL1       -0.4561
     18 N         141.1925  139.0271  160.4070 N.pl3   1  UNL1       -0.2880
     19 C         142.5161  138.4640  159.9813 C.3     1  UNL1        0.0940
     20 C         142.6504  137.7896  158.6483 C.3     1  UNL1        0.0375
     21 C         141.4612  137.6782  157.7409 C.3     1  UNL1        0.0609
     22 C         140.1377  138.2413  158.1666 C.3     1  UNL1        0.0375
     23 C         140.0033  138.9157  159.4996 C.3     1  UNL1        0.0940
     24 N         141.5955  137.0038  156.4078 N.3     1  UNL1       -0.2738
     25 C         140.4294  136.9669  155.4651 C.3     1  UNL1        0.0720
     26 C         140.5636  136.2925  154.1320 C.3     1  UNL1        0.0174
     27 C         141.8641  135.6550  153.7416 C.3     1  UNL1        0.0029
     28 C         143.0303  135.6920  154.6843 C.3     1  UNL1        0.0174
     29 C         142.8960  136.3664  156.0174 C.3     1  UNL1        0.0720
@<TRIPOS>BOND
     1    16    17    1
     2    17    10    1
     3    10    11   ar
     4    11    12   ar
     5    12     1    1
     6     1     2   ar
     7     2     3   ar
     8     3     4   ar
     9     4     5   ar
    10     5     6   ar
    11     6    18    1
    12    18    19    1
    13    19    20    1
    14    20    21    1
    15    21    24    1
    16    24    25    1
    17    25    26    1
    18    26    27    1
    19    27    28    1
    20    28    29    1
    21    21    22    1
    22    22    23    1
    23     6     7   ar
    24     7     8   ar
    25     8     9   ar
    26    12    13   ar
    27    13    14   ar
    28    14    15   ar
    29    15    10   ar
    30     9     1   ar
    31     8     4   ar
    32    23    18    1
    33    29    24    1
@<TRIPOS>MOLECULE
*****
 29 33 0 0 0
SMALL
GASTEIGER

@<TRIPOS>ATOM
      1 C         139.7361  140.5980  167.3741 C.ar    1  UNL1        0.0200
      2 C         138.8175  139.4210  167.2303 C.ar    1  UNL1        0.1006
      3 N         138.2245  139.0915  165.8925 N.ar    1  UNL1       -0.2246
      4 C         138.5501  139.9390  164.6985 C.ar    1  UNL1        0.1702
      5 N         138.1193  139.8596  163.2638 N.ar    1  UNL1       -0.2052
      6 C         138.7718  140.9876  162.5209 C.ar    1  UNL1        0.1647
      7 S         139.6058  141.7641  163.4965 S.2     1  UNL1       -0.0499
      8 C         139.4687  141.1160  164.8422 C.ar    1  UNL1        0.0679
      9 C         140.0618  141.4455  166.1800 C.ar    1  UNL1        0.0112
     10 C         142.0484  142.2430  170.1486 C.ar    1  UNL1        0.2250
     11 C         141.4553  141.9135  168.8108 C.ar    1  UNL1        0.0578
     12 C         140.3292  140.9275  168.7119 C.ar    1  UNL1        0.0077
     13 C         139.7962  140.2711  169.9508 C.ar    1  UNL1        0.0209
     14 C         140.3892  140.6006  171.2886 C.ar    1  UNL1        0.1021
     15 N         141.5153  141.5866  171.3875 N.ar    1  UNL1       -0.2101
     16 C         144.5840  142.7860  169.9891 C.3     1  UNL1        0.2542
     17 O         143.1744  143.2290  170.2475 O.3     1  UNL1       -0.4561
     18 N         138.6174  141.2867  161.0591 N.pl3   1  UNL1       -0.2880
     19 C         138.0773  140.2385  160.1321 C.3     1  UNL1        0.0940
     20 C         137.9229  140.5375  158.6704 C.3     1  UNL1        0.0375
     21 C         138.3086  141.8848  158.1357 C.3     1  UNL1        0.0609
     22 C         138.8487  142.9331  159.0627 C.3     1  UNL1        0.0375
     23 C         139.0031  142.6340  160.5244 C.3     1  UNL1        0.0940
     24 N         138.1542  142.1839  156.6739 N.3     1  UNL1       -0.2738
     25 C         137.6171  141.1345  155.7463 C.3     1  UNL1        0.0720
     26 C         137.4627  141.4336  154.2846 C.3     1  UNL1        0.0174
     27 C         137.8454  142.7820  153.7504 C.3     1  UNL1        0.0029
     28 C         138.3825  143.8313  154.6780 C.3     1  UNL1        0.0174
     29 C         138.5369  143.5323  156.1397 C.3     1  UNL1        0.0720
@<TRIPOS>BOND
     1    16    17    1
     2    17    10    1
     3    10    11   ar
     4    11    12   ar
     5    12     1    1
     6     1     2   ar
     7     2     3   ar
     8     3     4   ar
     9     4     5   ar
    10     5     6   ar
    11     6    18    1
    12    18    19    1
    13    19    20    1
    14    20    21    1
    15    21    24    1
    16    24    25    1
    17    25    26    1
    18    26    27    1
    19    27    28    1
    20    28    29    1
    21    21    22    1
    22    22    23    1
    23     6     7   ar
    24     7     8   ar
    25     8     9   ar
    26    12    13   ar
    27    13    14   ar
    28    14    15   ar
    29    15    10   ar
    30     9     1   ar
    31     8     4   ar
    32    23    18    1
    33    29    24    1
