@<TRIPOS>MOLECULE
*****
 32 36 0 0 0
SMALL
GASTEIGER

@<TRIPOS>ATOM
      1 C         140.2214  140.6247  165.1835 C.ar    1  UNL1        0.0889
      2 N         140.7334  140.0363  166.4648 N.ar    1  UNL1       -0.2427
      3 C         140.8364  141.1413  167.4739 C.ar    1  UNL1        0.0879
      4 S         140.3881  142.4128  166.8163 S.2     1  UNL1       -0.0693
      5 C         140.0080  142.0935  165.4008 C.ar    1  UNL1        0.0659
      6 F         139.2054  137.6295  160.0849 F       1  UNL1       -0.2042
      7 C         139.4594  138.3783  161.3596 C.ar    1  UNL1        0.1401
      8 C         140.6665  139.2601  161.4836 C.ar    1  UNL1        0.0297
      9 C         140.9205  140.0089  162.7583 C.ar    1  UNL1        0.0038
     10 C         139.9674  139.8759  163.9089 C.ar    1  UNL1        0.0183
     11 C         138.7604  138.9941  163.7848 C.ar    1  UNL1        0.0038
     12 C         138.5064  138.2453  162.5102 C.ar    1  UNL1        0.0297
     13 C         141.3054  140.9997  168.8916 C.3     1  UNL1        0.0493
     14 C         142.4635  140.1020  169.2123 C.3     1  UNL1        0.0236
     15 C         142.9325  139.9605  170.6301 C.3     1  UNL1        0.0690
     16 N         142.2434  140.7166  171.7270 N.3     1  UNL1       -0.2974
     17 C         141.0853  141.6143  171.4063 C.3     1  UNL1        0.0690
     18 C         140.6163  141.7559  169.9886 C.3     1  UNL1        0.0236
     19 H         142.9521  141.2984  172.1738 H       1  UNL1        0.1232
     20 C         139.5032  143.0713  164.3815 C.ar    1  UNL1        0.0932
     21 C         138.0275  143.2640  164.1935 C.ar    1  UNL1        0.0405
     22 C         137.5226  144.2418  163.1742 C.ar    1  UNL1        0.1034
     23 N         138.4934  145.0270  162.3429 N.ar    1  UNL1       -0.2120
     24 C         139.9691  144.8344  162.5309 C.ar    1  UNL1        0.2222
     25 N         140.4739  143.8565  163.5502 N.ar    1  UNL1       -0.2129
     26 N         140.9399  145.6196  161.6997 N.pl3   1  UNL1       -0.2614
     27 H         141.1746  146.5408  161.9557 H       1  UNL1        0.1570
     28 C         141.5530  145.0013  160.4783 C.ar    1  UNL1        0.1883
     29 N         142.7231  144.0630  160.4579 N.ar    1  UNL1       -0.1252
     30 N         142.9970  143.6945  159.0298 N.ar    1  UNL1       -0.1374
     31 C         141.9960  144.4051  158.1677 C.ar    1  UNL1        0.1605
     32 S         141.1036  145.2127  159.0629 S.2     1  UNL1       -0.0283
@<TRIPOS>BOND
     1     6     7    1
     2     7     8   ar
     3     8     9   ar
     4     9    10   ar
     5    10     1    1
     6     1     2   ar
     7     2     3   ar
     8     3    13    1
     9    13    14    1
    10    14    15    1
    11    15    16    1
    12    16    17    1
    13    17    18    1
    14     3     4   ar
    15     4     5   ar
    16     5    20    1
    17    20    21   ar
    18    21    22   ar
    19    22    23   ar
    20    23    24   ar
    21    24    26    1
    22    26    28    1
    23    28    29   ar
    24    29    30   ar
    25    30    31   ar
    26    31    32   ar
    27    24    25   ar
    28    10    11   ar
    29    11    12   ar
    30    12     7   ar
    31     5     1   ar
    32    25    20   ar
    33    18    13    1
    34    32    28   ar
    35    16    19    1
    36    26    27    1
@<TRIPOS>MOLECULE
*****
 32 36 0 0 0
SMALL
GASTEIGER

@<TRIPOS>ATOM
      1 C         142.0516  141.8005  164.8610 C.ar    1  UNL1        0.0889
      2 N         142.6009  141.2312  166.1355 N.ar    1  UNL1       -0.2427
      3 C         141.7529  141.7283  167.2686 C.ar    1  UNL1        0.0879
      4 S         140.6796  142.6048  166.6944 S.2     1  UNL1       -0.0693
      5 C         140.8642  142.6494  165.2064 C.ar    1  UNL1        0.0659
      6 F         144.2232  140.8489  159.3493 F       1  UNL1       -0.2042
      7 C         143.6803  141.0868  160.7272 C.ar    1  UNL1        0.1401
      8 C         144.4573  141.9155  161.7067 C.ar    1  UNL1        0.0297
      9 C         143.9144  142.1534  163.0846 C.ar    1  UNL1        0.0038
     10 C         142.5945  141.5626  163.4831 C.ar    1  UNL1        0.0183
     11 C         141.8175  140.7338  162.5036 C.ar    1  UNL1        0.0038
     12 C         142.3604  140.4959  161.1257 C.ar    1  UNL1        0.0297
     13 C         141.9446  141.4056  168.7208 C.3     1  UNL1        0.0493
     14 C         141.4965  142.3786  169.7708 C.3     1  UNL1        0.0236
     15 C         141.6883  142.0558  171.2231 C.3     1  UNL1        0.0690
     16 N         142.3280  140.7602  171.6253 N.3     1  UNL1       -0.2974
     17 C         142.7761  139.7872  170.5753 C.3     1  UNL1        0.0690
     18 C         142.5844  140.1099  169.1231 C.3     1  UNL1        0.0236
     19 H         141.6545  140.2693  172.2134 H       1  UNL1        0.1232
     20 C         140.0111  143.4095  164.2345 C.ar    1  UNL1        0.0932
     21 C         138.5166  143.2996  164.3028 C.ar    1  UNL1        0.0405
     22 C         137.6636  144.0597  163.3309 C.ar    1  UNL1        0.1034
     23 N         138.3049  144.9297  162.2908 N.ar    1  UNL1       -0.2120
     24 C         139.7993  145.0395  162.2226 C.ar    1  UNL1        0.2222
     25 N         140.6524  144.2794  163.1945 N.ar    1  UNL1       -0.2129
     26 N         140.4406  145.9095  161.1825 N.pl3   1  UNL1       -0.2614
     27 H         140.3843  146.8895  161.2575 H       1  UNL1        0.1570
     28 C         141.1679  145.2863  160.0280 C.ar    1  UNL1        0.1883
     29 N         142.4019  144.4382  160.1176 N.ar    1  UNL1       -0.1252
     30 N         142.7855  144.0295  158.7262 N.ar    1  UNL1       -0.1374
     31 C         141.7885  144.6251  157.7767 C.ar    1  UNL1        0.1605
     32 S         140.7888  145.4018  158.5813 S.2     1  UNL1       -0.0283
@<TRIPOS>BOND
     1     6     7    1
     2     7     8   ar
     3     8     9   ar
     4     9    10   ar
     5    10     1    1
     6     1     2   ar
     7     2     3   ar
     8     3    13    1
     9    13    14    1
    10    14    15    1
    11    15    16    1
    12    16    17    1
    13    17    18    1
    14     3     4   ar
    15     4     5   ar
    16     5    20    1
    17    20    21   ar
    18    21    22   ar
    19    22    23   ar
    20    23    24   ar
    21    24    26    1
    22    26    28    1
    23    28    29   ar
    24    29    30   ar
    25    30    31   ar
    26    31    32   ar
    27    24    25   ar
    28    10    11   ar
    29    11    12   ar
    30    12     7   ar
    31     5     1   ar
    32    25    20   ar
    33    18    13    1
    34    32    28   ar
    35    16    19    1
    36    26    27    1
@<TRIPOS>MOLECULE
*****
 32 36 0 0 0
SMALL
GASTEIGER

@<TRIPOS>ATOM
      1 C         142.3975  142.2956  165.1395 C.ar    1  UNL1        0.0889
      2 N         142.9159  141.8251  166.4661 N.ar    1  UNL1       -0.2427
      3 C         141.7898  141.8936  167.4546 C.ar    1  UNL1        0.0879
      4 S         140.5753  142.4064  166.7390 S.2     1  UNL1       -0.0693
      5 C         140.9509  142.6548  165.3081 C.ar    1  UNL1        0.0659
      6 F         145.5554  142.6740  160.0518 F       1  UNL1       -0.2042
      7 C         144.7659  142.5794  161.3238 C.ar    1  UNL1        0.1401
      8 C         144.2468  141.2506  161.7872 C.ar    1  UNL1        0.0297
      9 C         143.4573  141.1560  163.0591 C.ar    1  UNL1        0.0038
     10 C         143.1870  142.3902  163.8676 C.ar    1  UNL1        0.0183
     11 C         143.7060  143.7189  163.4041 C.ar    1  UNL1        0.0038
     12 C         144.4955  143.8135  162.1322 C.ar    1  UNL1        0.0297
     13 C         141.8649  141.5156  168.9043 C.3     1  UNL1        0.0493
     14 C         142.8356  140.4650  169.3560 C.3     1  UNL1        0.0236
     15 C         142.9107  140.0871  170.8057 C.3     1  UNL1        0.0690
     16 N         142.0153  140.7597  171.8035 N.3     1  UNL1       -0.2974
     17 C         141.0447  141.8103  171.3517 C.3     1  UNL1        0.0690
     18 C         140.9695  142.1882  169.9022 C.3     1  UNL1        0.0236
     19 H         142.6228  141.1981  172.4957 H       1  UNL1        0.1232
     20 C         140.0399  143.1717  164.2345 C.ar    1  UNL1        0.0932
     21 C         139.7220  144.6359  164.1613 C.ar    1  UNL1        0.0405
     22 C         138.8110  145.1529  163.0876 C.ar    1  UNL1        0.1034
     23 N         138.2177  144.2057  162.0871 N.ar    1  UNL1       -0.2120
     24 C         138.5356  142.7416  162.1603 C.ar    1  UNL1        0.2222
     25 N         139.4466  142.2247  163.2340 N.ar    1  UNL1       -0.2129
     26 N         137.9424  141.7944  161.1599 N.pl3   1  UNL1       -0.2614
     27 H         137.3309  142.1312  160.4656 H       1  UNL1        0.1570
     28 C         138.2808  140.3342  161.2171 C.ar    1  UNL1        0.1883
     29 N         137.7498  139.3445  162.2114 N.ar    1  UNL1       -0.1252
     30 N         138.3505  138.0059  161.8989 N.ar    1  UNL1       -0.1374
     31 C         139.2526  138.1685  160.7116 C.ar    1  UNL1        0.1605
     32 S         139.2095  139.6074  160.2902 S.2     1  UNL1       -0.0283
@<TRIPOS>BOND
     1     6     7    1
     2     7     8   ar
     3     8     9   ar
     4     9    10   ar
     5    10     1    1
     6     1     2   ar
     7     2     3   ar
     8     3    13    1
     9    13    14    1
    10    14    15    1
    11    15    16    1
    12    16    17    1
    13    17    18    1
    14     3     4   ar
    15     4     5   ar
    16     5    20    1
    17    20    21   ar
    18    21    22   ar
    19    22    23   ar
    20    23    24   ar
    21    24    26    1
    22    26    28    1
    23    28    29   ar
    24    29    30   ar
    25    30    31   ar
    26    31    32   ar
    27    24    25   ar
    28    10    11   ar
    29    11    12   ar
    30    12     7   ar
    31     5     1   ar
    32    25    20   ar
    33    18    13    1
    34    32    28   ar
    35    16    19    1
    36    26    27    1
@<TRIPOS>MOLECULE
*****
 32 36 0 0 0
SMALL
GASTEIGER

@<TRIPOS>ATOM
      1 C         142.2210  141.3227  165.2104 C.ar    1  UNL1        0.0889
      2 N         142.2697  141.9823  166.5567 N.ar    1  UNL1       -0.2427
      3 C         141.2825  141.2893  167.4485 C.ar    1  UNL1        0.0879
      4 S         140.6237  140.2014  166.6533 S.2     1  UNL1       -0.0693
      5 C         141.2037  140.2220  165.2701 C.ar    1  UNL1        0.0659
      6 F         145.5165  142.8234  160.4263 F       1  UNL1       -0.2042
      7 C         144.6926  142.4482  161.6224 C.ar    1  UNL1        0.1401
      8 C         145.3200  141.6984  162.7599 C.ar    1  UNL1        0.0297
      9 C         144.4961  141.3232  163.9560 C.ar    1  UNL1        0.0038
     10 C         143.0449  141.6979  164.0144 C.ar    1  UNL1        0.0183
     11 C         142.4175  142.4477  162.8768 C.ar    1  UNL1        0.0038
     12 C         143.2414  142.8229  161.6808 C.ar    1  UNL1        0.0297
     13 C         141.0033  141.6253  168.8834 C.3     1  UNL1        0.0493
     14 C         141.4351  140.6869  169.9711 C.3     1  UNL1        0.0236
     15 C         141.1558  141.0229  171.4061 C.3     1  UNL1        0.0690
     16 N         140.4449  142.2972  171.7533 N.3     1  UNL1       -0.2974
     17 C         140.0131  143.2355  170.6657 C.3     1  UNL1        0.0690
     18 C         140.2923  142.8996  169.2307 C.3     1  UNL1        0.0236
     19 H         141.0669  142.8237  172.3667 H       1  UNL1        0.1232
     20 C         140.8316  139.3032  164.1443 C.ar    1  UNL1        0.0932
     21 C         139.4013  138.8945  163.9512 C.ar    1  UNL1        0.0405
     22 C         139.0292  137.9757  162.8254 C.ar    1  UNL1        0.1034
     23 N         140.0874  137.4656  161.8927 N.ar    1  UNL1       -0.2120
     24 C         141.5177  137.8743  162.0858 C.ar    1  UNL1        0.2222
     25 N         141.8897  138.7931  163.2116 N.ar    1  UNL1       -0.2129
     26 N         142.5759  137.3642  161.1531 N.pl3   1  UNL1       -0.2614
     27 H         143.0119  136.4992  161.3292 H       1  UNL1        0.1570
     28 C         142.9699  138.1720  159.9522 C.ar    1  UNL1        0.1883
     29 N         144.0718  139.1882  159.8960 N.ar    1  UNL1       -0.1252
     30 N         144.1141  139.7496  158.5056 N.ar    1  UNL1       -0.1374
     31 C         143.0383  139.0803  157.7026 C.ar    1  UNL1        0.1605
     32 S         142.3312  138.1053  158.5966 S.2     1  UNL1       -0.0283
@<TRIPOS>BOND
     1     6     7    1
     2     7     8   ar
     3     8     9   ar
     4     9    10   ar
     5    10     1    1
     6     1     2   ar
     7     2     3   ar
     8     3    13    1
     9    13    14    1
    10    14    15    1
    11    15    16    1
    12    16    17    1
    13    17    18    1
    14     3     4   ar
    15     4     5   ar
    16     5    20    1
    17    20    21   ar
    18    21    22   ar
    19    22    23   ar
    20    23    24   ar
    21    24    26    1
    22    26    28    1
    23    28    29   ar
    24    29    30   ar
    25    30    31   ar
    26    31    32   ar
    27    24    25   ar
    28    10    11   ar
    29    11    12   ar
    30    12     7   ar
    31     5     1   ar
    32    25    20   ar
    33    18    13    1
    34    32    28   ar
    35    16    19    1
    36    26    27    1
@<TRIPOS>MOLECULE
*****
 32 36 0 0 0
SMALL
GASTEIGER

@<TRIPOS>ATOM
      1 C         140.3582  142.4393  165.3742 C.ar    1  UNL1        0.0889
      2 N         140.7940  142.6796  166.7892 N.ar    1  UNL1       -0.2427
      3 C         140.9291  141.3474  167.4653 C.ar    1  UNL1        0.0879
      4 S         140.5767  140.2837  166.4681 S.2     1  UNL1       -0.0693
      5 C         140.2239  140.9586  165.1758 C.ar    1  UNL1        0.0659
      6 F         139.3323  146.6599  161.2349 F       1  UNL1       -0.2042
      7 C         139.5887  145.6047  162.2697 C.ar    1  UNL1        0.1401
      8 C         140.9939  145.2972  162.6950 C.ar    1  UNL1        0.0297
      9 C         141.2504  144.2421  163.7299 C.ar    1  UNL1        0.0038
     10 C         140.1017  143.4944  164.3394 C.ar    1  UNL1        0.0183
     11 C         138.6966  143.8019  163.9141 C.ar    1  UNL1        0.0038
     12 C         138.4401  144.8571  162.8792 C.ar    1  UNL1        0.0297
     13 C         141.3437  141.1190  168.8887 C.3     1  UNL1        0.0493
     14 C         142.4824  140.1932  169.1987 C.3     1  UNL1        0.0236
     15 C         142.8970  139.9648  170.6221 C.3     1  UNL1        0.0690
     16 N         142.1730  140.6622  171.7353 N.3     1  UNL1       -0.2974
     17 C         141.0343  141.5881  171.4252 C.3     1  UNL1        0.0690
     18 C         140.6196  141.8165  170.0019 C.3     1  UNL1        0.0236
     19 H         142.8687  141.2103  172.2411 H       1  UNL1        0.1232
     20 C         139.8095  140.2730  163.9076 C.ar    1  UNL1        0.0932
     21 C         138.3633  140.2409  163.5104 C.ar    1  UNL1        0.0405
     22 C         137.9489  139.5553  162.2422 C.ar    1  UNL1        0.1034
     23 N         138.9806  138.9018  161.3712 N.ar    1  UNL1       -0.2120
     24 C         140.4267  138.9340  161.7684 C.ar    1  UNL1        0.2222
     25 N         140.8411  139.6195  163.0366 N.ar    1  UNL1       -0.2129
     26 N         141.4584  138.2805  160.8975 N.pl3   1  UNL1       -0.2614
     27 H         141.6102  137.3097  160.9579 H       1  UNL1        0.1570
     28 C         142.2587  139.1062  159.9343 C.ar    1  UNL1        0.1883
     29 N         143.6854  138.8643  159.5393 N.ar    1  UNL1       -0.1252
     30 N         144.0813  139.9274  158.5579 N.ar    1  UNL1       -0.1374
     31 C         142.8993  140.8264  158.3465 C.ar    1  UNL1        0.1605
     32 S         141.7728  140.3189  159.1971 S.2     1  UNL1       -0.0283
@<TRIPOS>BOND
     1     6     7    1
     2     7     8   ar
     3     8     9   ar
     4     9    10   ar
     5    10     1    1
     6     1     2   ar
     7     2     3   ar
     8     3    13    1
     9    13    14    1
    10    14    15    1
    11    15    16    1
    12    16    17    1
    13    17    18    1
    14     3     4   ar
    15     4     5   ar
    16     5    20    1
    17    20    21   ar
    18    21    22   ar
    19    22    23   ar
    20    23    24   ar
    21    24    26    1
    22    26    28    1
    23    28    29   ar
    24    29    30   ar
    25    30    31   ar
    26    31    32   ar
    27    24    25   ar
    28    10    11   ar
    29    11    12   ar
    30    12     7   ar
    31     5     1   ar
    32    25    20   ar
    33    18    13    1
    34    32    28   ar
    35    16    19    1
    36    26    27    1
@<TRIPOS>MOLECULE
*****
 32 36 0 0 0
SMALL
GASTEIGER

@<TRIPOS>ATOM
      1 C         140.8959  142.8039  165.3741 C.ar    1  UNL1        0.0889
      2 N         140.5150  142.8547  166.8240 N.ar    1  UNL1       -0.2427
      3 C         141.1398  141.6754  167.5090 C.ar    1  UNL1        0.0879
      4 S         141.9068  140.8959  166.4823 S.2     1  UNL1       -0.0693
      5 C         141.7560  141.5933  165.1629 C.ar    1  UNL1        0.0659
      6 F         139.2649  146.7504  161.1592 F       1  UNL1       -0.2042
      7 C         139.6727  145.7638  162.2129 C.ar    1  UNL1        0.1401
      8 C         141.1086  145.6688  162.6360 C.ar    1  UNL1        0.0297
      9 C         141.5163  144.6822  163.6898 C.ar    1  UNL1        0.0038
     10 C         140.4881  143.7905  164.3204 C.ar    1  UNL1        0.0183
     11 C         139.0522  143.8855  163.8972 C.ar    1  UNL1        0.0038
     12 C         138.6445  144.8721  162.8435 C.ar    1  UNL1        0.0297
     13 C         141.0189  141.3355  168.9649 C.3     1  UNL1        0.0493
     14 C         140.0787  140.2534  169.4068 C.3     1  UNL1        0.0236
     15 C         139.9577  139.9135  170.8628 C.3     1  UNL1        0.0690
     16 N         140.7769  140.6555  171.8767 N.3     1  UNL1       -0.2974
     17 C         141.7170  141.7376  171.4348 C.3     1  UNL1        0.0690
     18 C         141.8380  142.0776  169.9790 C.3     1  UNL1        0.0236
     19 H         141.3385  139.9599  172.3677 H       1  UNL1        0.1232
     20 C         142.3594  141.1568  163.8608 C.ar    1  UNL1        0.0932
     21 C         143.8295  141.3324  163.6192 C.ar    1  UNL1        0.0405
     22 C         144.4329  140.8958  162.3172 C.ar    1  UNL1        0.1034
     23 N         143.5664  140.2837  161.2568 N.ar    1  UNL1       -0.2120
     24 C         142.0965  140.1081  161.4984 C.ar    1  UNL1        0.2222
     25 N         141.4930  140.5447  162.8005 N.ar    1  UNL1       -0.2129
     26 N         141.2300  139.4960  160.4380 N.pl3   1  UNL1       -0.2614
     27 H         141.6252  139.2136  159.5817 H       1  UNL1        0.1570
     28 C         139.7612  139.3141  160.6823 C.ar    1  UNL1        0.1883
     29 N         138.6659  140.2029  160.1720 N.ar    1  UNL1       -0.1252
     30 N         137.3576  139.6496  160.6541 N.ar    1  UNL1       -0.1374
     31 C         137.6444  138.4189  161.4623 C.ar    1  UNL1        0.1605
     32 S         139.1299  138.2115  161.4797 S.2     1  UNL1       -0.0283
@<TRIPOS>BOND
     1     6     7    1
     2     7     8   ar
     3     8     9   ar
     4     9    10   ar
     5    10     1    1
     6     1     2   ar
     7     2     3   ar
     8     3    13    1
     9    13    14    1
    10    14    15    1
    11    15    16    1
    12    16    17    1
    13    17    18    1
    14     3     4   ar
    15     4     5   ar
    16     5    20    1
    17    20    21   ar
    18    21    22   ar
    19    22    23   ar
    20    23    24   ar
    21    24    26    1
    22    26    28    1
    23    28    29   ar
    24    29    30   ar
    25    30    31   ar
    26    31    32   ar
    27    24    25   ar
    28    10    11   ar
    29    11    12   ar
    30    12     7   ar
    31     5     1   ar
    32    25    20   ar
    33    18    13    1
    34    32    28   ar
    35    16    19    1
    36    26    27    1
@<TRIPOS>MOLECULE
*****
 32 36 0 0 0
SMALL
GASTEIGER

@<TRIPOS>ATOM
      1 C         140.3604  142.4655  165.3946 C.ar    1  UNL1        0.0889
      2 N         140.7987  142.6925  166.8111 N.ar    1  UNL1       -0.2427
      3 C         140.9385  141.3538  167.4732 C.ar    1  UNL1        0.0879
      4 S         140.5866  140.2995  166.4659 S.2     1  UNL1       -0.0693
      5 C         140.2293  140.9866  165.1813 C.ar    1  UNL1        0.0659
      6 F         139.3153  146.7256  161.3007 F       1  UNL1       -0.2042
      7 C         139.5766  145.6606  162.3242 C.ar    1  UNL1        0.1401
      8 C         138.4404  144.8417  162.8613 C.ar    1  UNL1        0.0297
      9 C         138.7017  143.7767  163.8848 C.ar    1  UNL1        0.0038
     10 C         140.0992  143.5305  164.3711 C.ar    1  UNL1        0.0183
     11 C         141.2353  144.3495  163.8340 C.ar    1  UNL1        0.0038
     12 C         140.9740  145.4145  162.8106 C.ar    1  UNL1        0.0297
     13 C         141.3567  141.1119  168.8932 C.3     1  UNL1        0.0493
     14 C         140.6424  141.8069  170.0142 C.3     1  UNL1        0.0236
     15 C         141.0606  141.5651  171.4343 C.3     1  UNL1        0.0690
     16 N         142.1931  140.6282  171.7333 N.3     1  UNL1       -0.2974
     17 C         142.9075  139.9332  170.6124 C.3     1  UNL1        0.0690
     18 C         142.4893  140.1750  169.1923 C.3     1  UNL1        0.0236
     19 H         141.8196  139.8993  172.3412 H       1  UNL1        0.1232
     20 C         139.8139  140.3130  163.9071 C.ar    1  UNL1        0.0932
     21 C         138.8508  139.1635  163.9458 C.ar    1  UNL1        0.0405
     22 C         138.4353  138.4899  162.6716 C.ar    1  UNL1        0.1034
     23 N         138.9829  138.9656  161.3587 N.ar    1  UNL1       -0.2120
     24 C         139.9460  140.1150  161.3199 C.ar    1  UNL1        0.2222
     25 N         140.3614  140.7886  162.5942 N.ar    1  UNL1       -0.2129
     26 N         140.4936  140.5907  160.0070 N.pl3   1  UNL1       -0.2614
     27 H         140.8709  139.9441  159.3677 H       1  UNL1        0.1570
     28 C         140.4663  142.0517  159.6681 C.ar    1  UNL1        0.1883
     29 N         139.2417  142.8646  159.3689 N.ar    1  UNL1       -0.1252
     30 N         139.6774  144.2717  159.0848 N.ar    1  UNL1       -0.1374
     31 C         141.1713  144.3281  159.2085 C.ar    1  UNL1        0.1605
     32 S         141.6588  142.9562  159.5690 S.2     1  UNL1       -0.0283
@<TRIPOS>BOND
     1     6     7    1
     2     7     8   ar
     3     8     9   ar
     4     9    10   ar
     5    10     1    1
     6     1     2   ar
     7     2     3   ar
     8     3    13    1
     9    13    14    1
    10    14    15    1
    11    15    16    1
    12    16    17    1
    13    17    18    1
    14     3     4   ar
    15     4     5   ar
    16     5    20    1
    17    20    21   ar
    18    21    22   ar
    19    22    23   ar
    20    23    24   ar
    21    24    26    1
    22    26    28    1
    23    28    29   ar
    24    29    30   ar
    25    30    31   ar
    26    31    32   ar
    27    24    25   ar
    28    10    11   ar
    29    11    12   ar
    30    12     7   ar
    31     5     1   ar
    32    25    20   ar
    33    18    13    1
    34    32    28   ar
    35    16    19    1
    36    26    27    1
@<TRIPOS>MOLECULE
*****
 32 36 0 0 0
SMALL
GASTEIGER

@<TRIPOS>ATOM
      1 C         140.0753  141.0242  164.8894 C.ar    1  UNL1        0.0889
      2 N         139.5454  141.1377  166.2882 N.ar    1  UNL1       -0.2427
      3 C         140.6918  141.4841  167.1914 C.ar    1  UNL1        0.0879
      4 S         141.9301  141.5847  166.3510 S.2     1  UNL1       -0.0693
      5 C         141.5491  141.3005  164.9283 C.ar    1  UNL1        0.0659
      6 F         136.8633  139.6981  159.9982 F       1  UNL1       -0.2042
      7 C         137.6663  140.0297  161.2210 C.ar    1  UNL1        0.1401
      8 C         138.0775  138.9401  162.1663 C.ar    1  UNL1        0.0297
      9 C         138.8805  139.2716  163.3891 C.ar    1  UNL1        0.0038
     10 C         139.2723  140.6927  163.6666 C.ar    1  UNL1        0.0183
     11 C         138.8610  141.7823  162.7213 C.ar    1  UNL1        0.0038
     12 C         138.0580  141.4507  161.4985 C.ar    1  UNL1        0.0297
     13 C         140.6135  141.6931  168.6747 C.3     1  UNL1        0.0493
     14 C         140.9016  140.5553  169.6087 C.3     1  UNL1        0.0236
     15 C         140.8233  140.7644  171.0920 C.3     1  UNL1        0.0690
     16 N         140.4570  142.1112  171.6413 N.3     1  UNL1       -0.2974
     17 C         140.1689  143.2490  170.7073 C.3     1  UNL1        0.0690
     18 C         140.2472  143.0400  169.2240 C.3     1  UNL1        0.0236
     19 H         141.2311  142.4071  172.2359 H       1  UNL1        0.1232
     20 C         142.4787  141.2938  163.7511 C.ar    1  UNL1        0.0932
     21 C         143.4724  140.1822  163.5865 C.ar    1  UNL1        0.0405
     22 C         144.4021  140.1754  162.4093 C.ar    1  UNL1        0.1034
     23 N         144.3380  141.2802  161.3967 N.ar    1  UNL1       -0.2120
     24 C         143.3443  142.3917  161.5613 C.ar    1  UNL1        0.2222
     25 N         142.4147  142.3985  162.7385 N.ar    1  UNL1       -0.2129
     26 N         143.2802  143.4965  160.5487 N.pl3   1  UNL1       -0.2614
     27 H         144.1079  143.9350  160.2455 H       1  UNL1        0.1570
     28 C         141.9551  143.9332  159.9980 C.ar    1  UNL1        0.1883
     29 N         141.4109  145.3309  160.0142 N.ar    1  UNL1       -0.1252
     30 N         140.0609  145.3104  159.3606 N.ar    1  UNL1       -0.1374
     31 C         139.7708  143.8999  158.9404 C.ar    1  UNL1        0.1605
     32 S         140.9415  143.0488  159.3343 S.2     1  UNL1       -0.0283
@<TRIPOS>BOND
     1     6     7    1
     2     7     8   ar
     3     8     9   ar
     4     9    10   ar
     5    10     1    1
     6     1     2   ar
     7     2     3   ar
     8     3    13    1
     9    13    14    1
    10    14    15    1
    11    15    16    1
    12    16    17    1
    13    17    18    1
    14     3     4   ar
    15     4     5   ar
    16     5    20    1
    17    20    21   ar
    18    21    22   ar
    19    22    23   ar
    20    23    24   ar
    21    24    26    1
    22    26    28    1
    23    28    29   ar
    24    29    30   ar
    25    30    31   ar
    26    31    32   ar
    27    24    25   ar
    28    10    11   ar
    29    11    12   ar
    30    12     7   ar
    31     5     1   ar
    32    25    20   ar
    33    18    13    1
    34    32    28   ar
    35    16    19    1
    36    26    27    1
@<TRIPOS>MOLECULE
*****
 32 36 0 0 0
SMALL
GASTEIGER

@<TRIPOS>ATOM
      1 C         140.3308  142.4327  165.3959 C.ar    1  UNL1        0.0889
      2 N         140.7934  142.6726  166.8025 N.ar    1  UNL1       -0.2427
      3 C         140.9152  141.3418  167.4837 C.ar    1  UNL1        0.0879
      4 S         140.5279  140.2794  166.4982 S.2     1  UNL1       -0.0693
      5 C         140.1667  140.9536  165.2079 C.ar    1  UNL1        0.0659
      6 F         139.3150  146.6492  161.2499 F       1  UNL1       -0.2042
      7 C         139.5689  145.5951  162.2864 C.ar    1  UNL1        0.1401
      8 C         138.4290  144.7815  162.8237 C.ar    1  UNL1        0.0297
      9 C         138.6830  143.7274  163.8602 C.ar    1  UNL1        0.0038
     10 C         140.0768  143.4868  164.3594 C.ar    1  UNL1        0.0183
     11 C         141.2167  144.3004  163.8221 C.ar    1  UNL1        0.0038
     12 C         140.9628  145.3545  162.7856 C.ar    1  UNL1        0.0297
     13 C         141.3483  141.1134  168.9016 C.3     1  UNL1        0.0493
     14 C         142.4719  140.1653  169.1991 C.3     1  UNL1        0.0236
     15 C         142.9050  139.9369  170.6169 C.3     1  UNL1        0.0690
     16 N         142.2146  140.6568  171.7372 N.3     1  UNL1       -0.2974
     17 C         141.0910  141.6049  171.4396 C.3     1  UNL1        0.0690
     18 C         140.6579  141.8333  170.0219 C.3     1  UNL1        0.0236
     19 H         142.9302  141.1929  172.2279 H       1  UNL1        0.1232
     20 C         139.7198  140.2690  163.9502 C.ar    1  UNL1        0.0932
     21 C         138.6287  139.2409  164.0030 C.ar    1  UNL1        0.0405
     22 C         138.1819  138.5562  162.7454 C.ar    1  UNL1        0.1034
     23 N         138.8261  138.8996  161.4351 N.ar    1  UNL1       -0.2120
     24 C         139.9171  139.9276  161.3823 C.ar    1  UNL1        0.2222
     25 N         140.3640  140.6123  162.6399 N.ar    1  UNL1       -0.2129
     26 N         140.5613  140.2709  160.0719 N.pl3   1  UNL1       -0.2614
     27 H         141.1165  141.0801  159.9934 H       1  UNL1        0.1570
     28 C         140.3596  139.3814  158.8811 C.ar    1  UNL1        0.1883
     29 N         139.0980  139.2533  158.0799 N.ar    1  UNL1       -0.1252
     30 N         139.3428  138.2564  156.9860 N.ar    1  UNL1       -0.1374
     31 C         140.7557  137.7685  157.1113 C.ar    1  UNL1        0.1605
     32 S         141.3841  138.4637  158.2825 S.2     1  UNL1       -0.0283
@<TRIPOS>BOND
     1     6     7    1
     2     7     8   ar
     3     8     9   ar
     4     9    10   ar
     5    10     1    1
     6     1     2   ar
     7     2     3   ar
     8     3    13    1
     9    13    14    1
    10    14    15    1
    11    15    16    1
    12    16    17    1
    13    17    18    1
    14     3     4   ar
    15     4     5   ar
    16     5    20    1
    17    20    21   ar
    18    21    22   ar
    19    22    23   ar
    20    23    24   ar
    21    24    26    1
    22    26    28    1
    23    28    29   ar
    24    29    30   ar
    25    30    31   ar
    26    31    32   ar
    27    24    25   ar
    28    10    11   ar
    29    11    12   ar
    30    12     7   ar
    31     5     1   ar
    32    25    20   ar
    33    18    13    1
    34    32    28   ar
    35    16    19    1
    36    26    27    1
