@<TRIPOS>MOLECULE
*****
 42 45 0 0 0
SMALL
GASTEIGER

@<TRIPOS>ATOM
      1 C         139.5653  139.9069  167.5790 C.3     1  UNL1        0.0577
      2 C         138.3713  139.1218  167.1229 C.3     1  UNL1        0.0177
      3 C         138.1425  138.8873  165.6591 C.3     1  UNL1        0.0212
      4 C         139.1076  139.4379  164.6515 C.3     1  UNL1        0.0771
      5 C         140.3016  140.2229  165.1076 C.3     1  UNL1        0.0436
      6 C         140.5304  140.4574  166.5714 C.3     1  UNL1        0.0194
      7 N         138.8788  139.2034  163.1877 N.am    1  UNL1       -0.2797
      8 C         139.4128  138.0544  162.3847 C.3     1  UNL1        0.0956
      9 C         138.9398  138.2176  160.9706 C.3     1  UNL1        0.0505
     10 C         138.1134  139.4675  160.8996 C.3     1  UNL1        0.1507
     11 C         138.0757  140.0767  162.2698 C.2     1  UNL1        0.2435
     12 O         137.3606  141.3378  162.6546 O.2     1  UNL1       -0.2731
     13 N         137.4426  140.0124  159.6737 N.am    1  UNL1       -0.2948
     14 C         138.2005  140.9087  158.7397 C.2     1  UNL1        0.2462
     15 O         139.6292  141.2601  159.0316 O.2     1  UNL1       -0.2701
     16 H         136.5049  139.7818  159.4820 H       1  UNL1        0.1501
     17 C         137.5296  141.4536  157.5138 C.ar    1  UNL1        0.0555
     18 C         136.4718  140.6495  156.8177 C.ar    1  UNL1        0.0341
     19 C         135.8008  141.1945  155.5917 C.ar    1  UNL1        0.1402
     20 F         134.7430  140.3904  154.8955 F       1  UNL1       -0.2042
     21 C         136.1876  142.5434  155.0618 C.ar    1  UNL1        0.0335
     22 C         137.2454  143.3475  155.7580 C.ar    1  UNL1        0.0738
     23 C         137.9164  142.8025  156.9840 C.ar    1  UNL1        0.0085
     24 C         137.6323  144.6964  155.2282 C.3     1  UNL1        0.4187
     25 F         138.0191  146.0453  154.6983 F       1  UNL1       -0.1659
     26 F         138.6591  144.8283  156.3136 F       1  UNL1       -0.1659
     27 F         136.6054  144.5645  154.1427 F       1  UNL1       -0.1659
     28 N         139.7941  140.1414  169.0428 N.3     1  UNL1       -0.2741
     29 C         138.6293  140.1814  169.9870 C.3     1  UNL1        0.0896
     30 C         141.6548  141.7038  169.9629 C.3     1  UNL1        0.0173
     31 C         141.1877  140.3358  169.5623 C.3     1  UNL1        0.0576
     32 C         142.1144  139.1622  169.6813 C.3     1  UNL1        0.0173
     33 C         141.2668  140.7735  164.0999 C.3     1  UNL1        0.1576
     34 S         140.9564  142.0562  163.3870 S.O2    1  UNL1        0.0087
     35 O         141.2405  141.3939  162.0716 O.2     1  UNL1       -0.1686
     36 O         140.6723  142.7186  164.7025 O.2     1  UNL1       -0.1686
     37 C         140.6460  143.3390  162.6741 C.ar    1  UNL1        0.1057
     38 C         139.5719  144.2465  163.1965 C.ar    1  UNL1        0.0183
     39 C         139.2615  145.5292  162.4836 C.ar    1  UNL1        0.0013
     40 C         140.0251  145.9044  161.2482 C.ar    1  UNL1        0.0001
     41 C         141.0992  144.9969  160.7258 C.ar    1  UNL1        0.0013
     42 C         141.4096  143.7142  161.4387 C.ar    1  UNL1        0.0183
@<TRIPOS>BOND
     1    30    31    1
     2    31    32    1
     3    31    28    1
     4    28    29    1
     5     1    28    1
     6     1     2    1
     7     2     3    1
     8     3     4    1
     9     4     7    1
    10     7     8    1
    11     8     9    1
    12     9    10    1
    13    10    13    1
    14    13    14   am
    15    14    15    2
    16    14    17    1
    17    17    18   ar
    18    18    19   ar
    19    19    20    1
    20    19    21   ar
    21    21    22   ar
    22    22    24    1
    23    24    25    1
    24    24    26    1
    25    24    27    1
    26    22    23   ar
    27    10    11    1
    28    11    12    2
    29     4     5    1
    30     5    33    1
    31    33    34    1
    32    34    35    2
    33    34    36    2
    34    34    37    1
    35    37    38   ar
    36    38    39   ar
    37    39    40   ar
    38    40    41   ar
    39    41    42   ar
    40     5     6    1
    41     6     1    1
    42    11     7   am
    43    42    37   ar
    44    23    17   ar
    45    13    16    1
@<TRIPOS>MOLECULE
*****
 42 45 0 0 0
SMALL
GASTEIGER

@<TRIPOS>ATOM
      1 C         143.5926  142.4939  161.8227 C.3     1  UNL1        0.0577
      2 C         144.4660  142.4483  160.6041 C.3     1  UNL1        0.0177
      3 C         144.0747  141.5975  159.4323 C.3     1  UNL1        0.0212
      4 C         142.8101  140.7922  159.4792 C.3     1  UNL1        0.0771
      5 C         141.9367  140.8378  160.6979 C.3     1  UNL1        0.0436
      6 C         142.3280  141.6886  161.8696 C.3     1  UNL1        0.0194
      7 N         142.4188  139.9414  158.3075 N.am    1  UNL1       -0.2797
      8 C         141.8249  140.4324  157.0206 C.3     1  UNL1        0.0956
      9 C         141.5918  139.2446  156.1346 C.3     1  UNL1        0.0505
     10 C         142.0417  138.0195  156.8740 C.3     1  UNL1        0.1507
     11 C         142.5528  138.4501  158.2169 C.2     1  UNL1        0.2435
     12 O         143.1016  137.5479  159.2822 O.2     1  UNL1       -0.2731
     13 N         141.9896  136.6110  156.3607 N.am    1  UNL1       -0.2948
     14 C         143.2138  135.9857  155.7604 C.2     1  UNL1        0.2462
     15 O         144.4902  136.7689  155.6735 O.2     1  UNL1       -0.2701
     16 H         141.1519  136.0970  156.4177 H       1  UNL1        0.1501
     17 C         143.1617  134.5773  155.2471 C.ar    1  UNL1        0.0555
     18 C         142.4957  134.2811  153.9361 C.ar    1  UNL1        0.0341
     19 C         142.4435  132.8726  153.4227 C.ar    1  UNL1        0.1402
     20 F         141.7776  132.5764  152.1117 F       1  UNL1       -0.2042
     21 C         143.0573  131.7604  154.2204 C.ar    1  UNL1        0.0335
     22 C         143.7232  132.0566  155.5314 C.ar    1  UNL1        0.0738
     23 C         143.7754  133.4651  156.0448 C.ar    1  UNL1        0.0085
     24 C         144.3369  130.9444  156.3291 C.3     1  UNL1        0.4187
     25 F         144.9507  129.8322  157.1267 F       1  UNL1       -0.1659
     26 F         145.6279  131.7052  156.3967 F       1  UNL1       -0.1659
     27 F         143.0460  130.1836  156.2615 F       1  UNL1       -0.1659
     28 N         143.9839  143.3447  162.9945 N.3     1  UNL1       -0.2741
     29 C         143.6481  144.8066  163.0052 C.3     1  UNL1        0.0896
     30 C         144.5095  143.2797  165.5380 C.3     1  UNL1        0.0173
     31 C         144.7110  142.7337  164.1555 C.3     1  UNL1        0.0576
     32 C         145.6396  141.5767  163.9340 C.3     1  UNL1        0.0173
     33 C         140.6720  140.0325  160.7448 C.3     1  UNL1        0.1576
     34 S         140.0747  139.6507  162.0666 S.O2    1  UNL1        0.0087
     35 O         140.9953  138.4689  162.1413 O.2     1  UNL1       -0.1686
     36 O         139.1540  140.8325  161.9919 O.2     1  UNL1       -0.1686
     37 C         139.4773  139.2688  163.3885 C.ar    1  UNL1        0.1057
     38 C         139.5600  137.8495  163.8669 C.ar    1  UNL1        0.0183
     39 C         138.9627  137.4676  165.1887 C.ar    1  UNL1        0.0013
     40 C         138.2826  138.5049  166.0322 C.ar    1  UNL1        0.0001
     41 C         138.1999  139.9242  165.5538 C.ar    1  UNL1        0.0013
     42 C         138.7972  140.3061  164.2320 C.ar    1  UNL1        0.0183
@<TRIPOS>BOND
     1    30    31    1
     2    31    32    1
     3    31    28    1
     4    28    29    1
     5     1    28    1
     6     1     2    1
     7     2     3    1
     8     3     4    1
     9     4     7    1
    10     7     8    1
    11     8     9    1
    12     9    10    1
    13    10    13    1
    14    13    14   am
    15    14    15    2
    16    14    17    1
    17    17    18   ar
    18    18    19   ar
    19    19    20    1
    20    19    21   ar
    21    21    22   ar
    22    22    24    1
    23    24    25    1
    24    24    26    1
    25    24    27    1
    26    22    23   ar
    27    10    11    1
    28    11    12    2
    29     4     5    1
    30     5    33    1
    31    33    34    1
    32    34    35    2
    33    34    36    2
    34    34    37    1
    35    37    38   ar
    36    38    39   ar
    37    39    40   ar
    38    40    41   ar
    39    41    42   ar
    40     5     6    1
    41     6     1    1
    42    11     7   am
    43    42    37   ar
    44    23    17   ar
    45    13    16    1
@<TRIPOS>MOLECULE
*****
 42 45 0 0 0
SMALL
GASTEIGER

@<TRIPOS>ATOM
      1 C         141.2102  139.0797  157.9225 C.3     1  UNL1        0.0577
      2 C         142.0533  138.2768  158.8683 C.3     1  UNL1        0.0177
      3 C         141.6589  138.1607  160.3108 C.3     1  UNL1        0.0212
      4 C         140.4213  138.8474  160.8076 C.3     1  UNL1        0.0771
      5 C         139.5783  139.6504  159.8619 C.3     1  UNL1        0.0436
      6 C         139.9727  139.7665  158.4193 C.3     1  UNL1        0.0194
      7 N         140.0269  138.7313  162.2502 N.am    1  UNL1       -0.2797
      8 C         139.0584  137.7390  162.8223 C.3     1  UNL1        0.0956
      9 C         138.9646  137.9815  164.2996 C.3     1  UNL1        0.0505
     10 C         139.8752  139.1237  164.6405 C.3     1  UNL1        0.1507
     11 C         140.5317  139.5871  163.3739 C.2     1  UNL1        0.2435
     12 O         141.5196  140.7093  163.2524 O.2     1  UNL1       -0.2731
     13 N         140.0913  139.7011  166.0079 N.am    1  UNL1       -0.2948
     14 C         141.4082  139.5143  166.7014 C.2     1  UNL1        0.2462
     15 O         142.5090  138.7501  166.0274 O.2     1  UNL1       -0.2701
     16 H         139.3688  140.2027  166.4503 H       1  UNL1        0.1501
     17 C         141.6243  140.0918  168.0688 C.ar    1  UNL1        0.0555
     18 C         142.5710  139.4260  169.0230 C.ar    1  UNL1        0.0341
     19 C         142.7871  140.0035  170.3905 C.ar    1  UNL1        0.1402
     20 F         143.7338  139.3378  171.3447 F       1  UNL1       -0.2042
     21 C         142.0565  141.2466  170.8037 C.ar    1  UNL1        0.0335
     22 C         141.1097  141.9124  169.8495 C.ar    1  UNL1        0.0738
     23 C         140.8936  141.3349  168.4820 C.ar    1  UNL1        0.0085
     24 C         140.3791  143.1555  170.2627 C.3     1  UNL1        0.4187
     25 F         139.6484  144.3986  170.6759 F       1  UNL1       -0.1659
     26 F         139.1320  142.3506  170.4792 F       1  UNL1       -0.1659
     27 F         141.6261  143.9604  170.0462 F       1  UNL1       -0.1659
     28 N         141.6047  139.1959  156.4800 N.3     1  UNL1       -0.2741
     29 C         141.4484  140.5039  155.7627 C.3     1  UNL1        0.0896
     30 C         141.2226  137.0080  155.1320 C.3     1  UNL1        0.0173
     31 C         142.1554  138.0040  155.7548 C.3     1  UNL1        0.0576
     32 C         143.6391  137.8080  155.6522 C.3     1  UNL1        0.0173
     33 C         138.3407  140.3372  160.3586 C.3     1  UNL1        0.1576
     34 S         138.4517  141.4628  161.3437 S.O2    1  UNL1        0.0087
     35 O         139.4924  142.1143  160.4820 O.2     1  UNL1       -0.1686
     36 O         137.4111  140.8114  162.2054 O.2     1  UNL1       -0.1686
     37 C         138.5629  142.5886  162.3289 C.ar    1  UNL1        0.1057
     38 C         137.7607  142.5582  163.5960 C.ar    1  UNL1        0.0183
     39 C         137.8718  143.6838  164.5812 C.ar    1  UNL1        0.0013
     40 C         138.7850  144.8399  164.2992 C.ar    1  UNL1        0.0001
     41 C         139.5872  144.8702  163.0320 C.ar    1  UNL1        0.0013
     42 C         139.4761  143.7446  162.0469 C.ar    1  UNL1        0.0183
@<TRIPOS>BOND
     1    30    31    1
     2    31    32    1
     3    31    28    1
     4    28    29    1
     5     1    28    1
     6     1     2    1
     7     2     3    1
     8     3     4    1
     9     4     7    1
    10     7     8    1
    11     8     9    1
    12     9    10    1
    13    10    13    1
    14    13    14   am
    15    14    15    2
    16    14    17    1
    17    17    18   ar
    18    18    19   ar
    19    19    20    1
    20    19    21   ar
    21    21    22   ar
    22    22    24    1
    23    24    25    1
    24    24    26    1
    25    24    27    1
    26    22    23   ar
    27    10    11    1
    28    11    12    2
    29     4     5    1
    30     5    33    1
    31    33    34    1
    32    34    35    2
    33    34    36    2
    34    34    37    1
    35    37    38   ar
    36    38    39   ar
    37    39    40   ar
    38    40    41   ar
    39    41    42   ar
    40     5     6    1
    41     6     1    1
    42    11     7   am
    43    42    37   ar
    44    23    17   ar
    45    13    16    1
@<TRIPOS>MOLECULE
*****
 42 45 0 0 0
SMALL
GASTEIGER

@<TRIPOS>ATOM
      1 C         139.4953  139.7233  167.9520 C.3     1  UNL1        0.0577
      2 C         138.1575  139.2060  167.5134 C.3     1  UNL1        0.0177
      3 C         137.8811  138.9815  166.0563 C.3     1  UNL1        0.0212
      4 C         138.9425  139.2744  165.0377 C.3     1  UNL1        0.0771
      5 C         140.2804  139.7917  165.4763 C.3     1  UNL1        0.0436
      6 C         140.5568  140.0162  166.9334 C.3     1  UNL1        0.0194
      7 N         138.6661  139.0499  163.5806 N.am    1  UNL1       -0.2797
      8 C         138.8973  137.7746  162.8256 C.3     1  UNL1        0.0956
      9 C         138.4841  137.9978  161.4010 C.3     1  UNL1        0.0505
     10 C         137.9974  139.4111  161.2756 C.3     1  UNL1        0.1507
     11 C         138.1099  140.0613  162.6226 C.2     1  UNL1        0.2435
     12 O         137.7325  141.4748  162.9536 O.2     1  UNL1       -0.2731
     13 N         137.4877  140.0602  160.0231 N.am    1  UNL1       -0.2948
     14 C         138.4114  140.8846  159.1762 C.2     1  UNL1        0.2462
     15 O         139.8448  141.0598  159.5819 O.2     1  UNL1       -0.2701
     16 H         136.5469  139.9452  159.7568 H       1  UNL1        0.1501
     17 C         137.9017  141.5336  157.9237 C.ar    1  UNL1        0.0555
     18 C         138.5697  142.7675  157.3931 C.ar    1  UNL1        0.0341
     19 C         138.0599  143.4166  156.1405 C.ar    1  UNL1        0.1402
     20 F         138.7279  144.6504  155.6099 F       1  UNL1       -0.2042
     21 C         136.8822  142.8319  155.4186 C.ar    1  UNL1        0.0335
     22 C         136.2142  141.5981  155.9492 C.ar    1  UNL1        0.0738
     23 C         136.7240  140.9490  157.2018 C.ar    1  UNL1        0.0085
     24 C         135.0365  141.0135  155.2273 C.3     1  UNL1        0.4187
     25 F         133.8588  140.4288  154.5054 F       1  UNL1       -0.1659
     26 F         135.5180  141.6262  153.9456 F       1  UNL1       -0.1659
     27 F         134.5551  140.4007  156.5090 F       1  UNL1       -0.1659
     28 N         139.7718  139.9478  169.4091 N.3     1  UNL1       -0.2741
     29 C         138.6445  139.9259  170.3984 C.3     1  UNL1        0.0896
     30 C         141.6212  141.5870  170.2107 C.3     1  UNL1        0.0173
     31 C         141.1754  140.1942  169.8769 C.3     1  UNL1        0.0576
     32 C         142.1335  139.0478  170.0110 C.3     1  UNL1        0.0173
     33 C         141.3419  140.0846  164.4577 C.3     1  UNL1        0.1576
     34 S         142.0358  141.4144  164.4588 S.O2    1  UNL1        0.0087
     35 O         140.7326  142.0947  164.1609 O.2     1  UNL1       -0.1686
     36 O         143.3391  140.7341  164.7567 O.2     1  UNL1       -0.1686
     37 C         142.7298  142.7443  164.4599 C.ar    1  UNL1        0.1057
     38 C         143.8921  142.9830  165.3776 C.ar    1  UNL1        0.0183
     39 C         144.5860  144.3128  165.3787 C.ar    1  UNL1        0.0013
     40 C         144.1176  145.4039  164.4622 C.ar    1  UNL1        0.0001
     41 C         142.9553  145.1652  163.5445 C.ar    1  UNL1        0.0013
     42 C         142.2614  143.8354  163.5434 C.ar    1  UNL1        0.0183
@<TRIPOS>BOND
     1    30    31    1
     2    31    32    1
     3    31    28    1
     4    28    29    1
     5     1    28    1
     6     1     2    1
     7     2     3    1
     8     3     4    1
     9     4     7    1
    10     7     8    1
    11     8     9    1
    12     9    10    1
    13    10    13    1
    14    13    14   am
    15    14    15    2
    16    14    17    1
    17    17    18   ar
    18    18    19   ar
    19    19    20    1
    20    19    21   ar
    21    21    22   ar
    22    22    24    1
    23    24    25    1
    24    24    26    1
    25    24    27    1
    26    22    23   ar
    27    10    11    1
    28    11    12    2
    29     4     5    1
    30     5    33    1
    31    33    34    1
    32    34    35    2
    33    34    36    2
    34    34    37    1
    35    37    38   ar
    36    38    39   ar
    37    39    40   ar
    38    40    41   ar
    39    41    42   ar
    40     5     6    1
    41     6     1    1
    42    11     7   am
    43    42    37   ar
    44    23    17   ar
    45    13    16    1
@<TRIPOS>MOLECULE
*****
 42 45 0 0 0
SMALL
GASTEIGER

@<TRIPOS>ATOM
      1 C         142.8814  140.0178  167.7796 C.3     1  UNL1        0.0577
      2 C         143.2522  138.6252  167.3638 C.3     1  UNL1        0.0177
      3 C         143.4619  138.3063  165.9131 C.3     1  UNL1        0.0212
      4 C         143.3009  139.3802  164.8783 C.3     1  UNL1        0.0771
      5 C         142.9301  140.7728  165.2941 C.3     1  UNL1        0.0436
      6 C         142.7203  141.0917  166.7448 C.3     1  UNL1        0.0194
      7 N         143.5107  139.0614  163.4277 N.am    1  UNL1       -0.2797
      8 C         144.5543  139.6638  162.5345 C.3     1  UNL1        0.0956
      9 C         144.4023  139.0589  161.1703 C.3     1  UNL1        0.0505
     10 C         143.2646  138.0826  161.2204 C.3     1  UNL1        0.1507
     11 C         142.7136  138.0841  162.6155 C.2     1  UNL1        0.2435
     12 O         141.5667  137.2541  163.1113 O.2     1  UNL1       -0.2731
     13 N         142.7656  137.2508  160.0762 N.am    1  UNL1       -0.2948
     14 C         142.6951  137.8372  158.6974 C.2     1  UNL1        0.2462
     15 O         143.1236  139.2554  158.4627 O.2     1  UNL1       -0.2701
     16 H         142.4843  136.3200  160.2303 H       1  UNL1        0.1501
     17 C         142.1961  137.0054  157.5533 C.ar    1  UNL1        0.0555
     18 C         140.9268  137.3833  156.8490 C.ar    1  UNL1        0.0341
     19 C         140.4277  136.5514  155.7048 C.ar    1  UNL1        0.1402
     20 F         139.1584  136.9293  155.0004 F       1  UNL1       -0.2042
     21 C         141.1979  135.3417  155.2651 C.ar    1  UNL1        0.0335
     22 C         142.4672  134.9638  155.9694 C.ar    1  UNL1        0.0738
     23 C         142.9663  135.7957  157.1136 C.ar    1  UNL1        0.0085
     24 C         143.2374  133.7541  155.5297 C.3     1  UNL1        0.4187
     25 F         144.0076  132.5444  155.0899 F       1  UNL1       -0.1659
     26 F         142.9628  134.1004  154.0963 F       1  UNL1       -0.1659
     27 F         143.5119  133.4078  156.9631 F       1  UNL1       -0.1659
     28 N         142.6716  140.3366  169.2302 N.3     1  UNL1       -0.2741
     29 C         142.3898  139.2340  170.2073 C.3     1  UNL1        0.0896
     30 C         144.0771  142.4143  169.9070 C.3     1  UNL1        0.0173
     31 C         142.7436  141.7581  169.7038 C.3     1  UNL1        0.0576
     32 C         141.4821  142.5234  169.9741 C.3     1  UNL1        0.0173
     33 C         142.7690  141.8468  164.2593 C.3     1  UNL1        0.1576
     34 S         141.4319  142.4941  164.0521 S.O2    1  UNL1        0.0087
     35 O         140.8997  141.2126  163.4825 O.2     1  UNL1       -0.1686
     36 O         141.9641  143.7756  164.6217 O.2     1  UNL1       -0.1686
     37 C         140.0947  143.1415  163.8448 C.ar    1  UNL1        0.1057
     38 C         139.4825  143.9650  164.9390 C.ar    1  UNL1        0.0183
     39 C         138.1453  144.6123  164.7318 C.ar    1  UNL1        0.0013
     40 C         137.4204  144.4362  163.4305 C.ar    1  UNL1        0.0001
     41 C         138.0326  143.6127  162.3364 C.ar    1  UNL1        0.0013
     42 C         139.3698  142.9654  162.5435 C.ar    1  UNL1        0.0183
@<TRIPOS>BOND
     1    30    31    1
     2    31    32    1
     3    31    28    1
     4    28    29    1
     5     1    28    1
     6     1     2    1
     7     2     3    1
     8     3     4    1
     9     4     7    1
    10     7     8    1
    11     8     9    1
    12     9    10    1
    13    10    13    1
    14    13    14   am
    15    14    15    2
    16    14    17    1
    17    17    18   ar
    18    18    19   ar
    19    19    20    1
    20    19    21   ar
    21    21    22   ar
    22    22    24    1
    23    24    25    1
    24    24    26    1
    25    24    27    1
    26    22    23   ar
    27    10    11    1
    28    11    12    2
    29     4     5    1
    30     5    33    1
    31    33    34    1
    32    34    35    2
    33    34    36    2
    34    34    37    1
    35    37    38   ar
    36    38    39   ar
    37    39    40   ar
    38    40    41   ar
    39    41    42   ar
    40     5     6    1
    41     6     1    1
    42    11     7   am
    43    42    37   ar
    44    23    17   ar
    45    13    16    1
@<TRIPOS>MOLECULE
*****
 42 45 0 0 0
SMALL
GASTEIGER

@<TRIPOS>ATOM
      1 C         141.7190  139.6858  167.6640 C.3     1  UNL1        0.0577
      2 C         143.0431  139.0368  167.3891 C.3     1  UNL1        0.0177
      3 C         143.4680  138.7689  165.9757 C.3     1  UNL1        0.0212
      4 C         142.5688  139.1500  164.8372 C.3     1  UNL1        0.0771
      5 C         141.2447  139.7989  165.1121 C.3     1  UNL1        0.0436
      6 C         140.8199  140.0669  166.5255 C.3     1  UNL1        0.0194
      7 N         142.9937  138.8820  163.4238 N.am    1  UNL1       -0.2797
      8 C         144.0815  139.5979  162.6794 C.3     1  UNL1        0.0956
      9 C         144.1655  139.0095  161.3022 C.3     1  UNL1        0.0505
     10 C         143.1296  137.9300  161.1954 C.3     1  UNL1        0.1507
     11 C         142.4054  137.8512  162.5066 C.2     1  UNL1        0.2435
     12 O         141.2889  136.9072  162.8418 O.2     1  UNL1       -0.2731
     13 N         142.8644  137.0786  159.9892 N.am    1  UNL1       -0.2948
     14 C         142.5394  137.7221  158.6738 C.2     1  UNL1        0.2462
     15 O         142.4796  139.2169  158.5645 O.2     1  UNL1       -0.2701
     16 H         142.9037  136.0975  160.0609 H       1  UNL1        0.1501
     17 C         142.2742  136.8708  157.4677 C.ar    1  UNL1        0.0555
     18 C         141.1757  137.2405  156.5155 C.ar    1  UNL1        0.0341
     19 C         140.9105  136.3890  155.3093 C.ar    1  UNL1        0.1402
     20 F         139.8119  136.7588  154.3572 F       1  UNL1       -0.2042
     21 C         141.7438  135.1680  155.0553 C.ar    1  UNL1        0.0335
     22 C         142.8424  134.7983  156.0074 C.ar    1  UNL1        0.0738
     23 C         143.1076  135.6497  157.2136 C.ar    1  UNL1        0.0085
     24 C         143.6757  133.5772  155.7534 C.3     1  UNL1        0.4187
     25 F         144.5090  132.3562  155.4993 F       1  UNL1       -0.1659
     26 F         144.3557  133.7659  157.0770 F       1  UNL1       -0.1659
     27 F         142.9957  133.3885  154.4297 F       1  UNL1       -0.1659
     28 N         141.2942  139.9537  169.0774 N.3     1  UNL1       -0.2741
     29 C         142.0069  139.2839  170.2146 C.3     1  UNL1        0.0896
     30 C         138.8095  140.3471  169.7268 C.3     1  UNL1        0.0173
     31 C         140.1565  140.8915  169.3536 C.3     1  UNL1        0.0576
     32 C         140.3658  142.3737  169.2566 C.3     1  UNL1        0.0173
     33 C         140.3455  140.1800  163.9736 C.3     1  UNL1        0.1576
     34 S         140.2422  141.6144  163.5471 S.O2    1  UNL1        0.0087
     35 O         141.1088  141.3231  162.3579 O.2     1  UNL1       -0.1686
     36 O         139.3756  141.9056  164.7362 O.2     1  UNL1       -0.1686
     37 C         140.1390  143.0488  163.1205 C.ar    1  UNL1        0.1057
     38 C         138.7932  143.6994  162.9966 C.ar    1  UNL1        0.0183
     39 C         138.6899  145.1337  162.5701 C.ar    1  UNL1        0.0013
     40 C         139.9326  145.9175  162.2674 C.ar    1  UNL1        0.0001
     41 C         141.2784  145.2668  162.3913 C.ar    1  UNL1        0.0013
     42 C         141.3817  143.8325  162.8178 C.ar    1  UNL1        0.0183
@<TRIPOS>BOND
     1    30    31    1
     2    31    32    1
     3    31    28    1
     4    28    29    1
     5     1    28    1
     6     1     2    1
     7     2     3    1
     8     3     4    1
     9     4     7    1
    10     7     8    1
    11     8     9    1
    12     9    10    1
    13    10    13    1
    14    13    14   am
    15    14    15    2
    16    14    17    1
    17    17    18   ar
    18    18    19   ar
    19    19    20    1
    20    19    21   ar
    21    21    22   ar
    22    22    24    1
    23    24    25    1
    24    24    26    1
    25    24    27    1
    26    22    23   ar
    27    10    11    1
    28    11    12    2
    29     4     5    1
    30     5    33    1
    31    33    34    1
    32    34    35    2
    33    34    36    2
    34    34    37    1
    35    37    38   ar
    36    38    39   ar
    37    39    40   ar
    38    40    41   ar
    39    41    42   ar
    40     5     6    1
    41     6     1    1
    42    11     7   am
    43    42    37   ar
    44    23    17   ar
    45    13    16    1
@<TRIPOS>MOLECULE
*****
 42 45 0 0 0
SMALL
GASTEIGER

@<TRIPOS>ATOM
      1 C         142.1893  140.3759  167.7821 C.3     1  UNL1        0.0577
      2 C         142.9230  139.0944  167.5186 C.3     1  UNL1        0.0177
      3 C         143.2894  138.7151  166.1144 C.3     1  UNL1        0.0212
      4 C         142.9222  139.6173  164.9737 C.3     1  UNL1        0.0771
      5 C         142.1885  140.8988  165.2372 C.3     1  UNL1        0.0436
      6 C         141.8221  141.2781  166.6415 C.3     1  UNL1        0.0194
      7 N         143.2886  139.2380  163.5695 N.am    1  UNL1       -0.2797
      8 C         144.4192  139.8115  162.7677 C.3     1  UNL1        0.0956
      9 C         144.4181  139.1465  161.4232 C.3     1  UNL1        0.0505
     10 C         143.2868  138.1620  161.3939 C.3     1  UNL1        0.1507
     11 C         142.5887  138.2185  162.7204 C.2     1  UNL1        0.2435
     12 O         141.3995  137.3994  163.1264 O.2     1  UNL1       -0.2731
     13 N         142.9182  137.2764  160.2407 N.am    1  UNL1       -0.2948
     14 C         142.7596  137.8598  158.8679 C.2     1  UNL1        0.2462
     15 O         142.9695  139.3287  158.6483 O.2     1  UNL1       -0.2701
     16 H         142.7805  136.3123  160.3848 H       1  UNL1        0.1501
     17 C         142.3910  136.9742  157.7147 C.ar    1  UNL1        0.0555
     18 C         141.1822  137.2885  156.8842 C.ar    1  UNL1        0.0341
     19 C         140.8136  136.4029  155.7309 C.ar    1  UNL1        0.1402
     20 F         139.6047  136.7172  154.9003 F       1  UNL1       -0.2042
     21 C         141.6538  135.2029  155.4083 C.ar    1  UNL1        0.0335
     22 C         142.8627  134.8886  156.2389 C.ar    1  UNL1        0.0738
     23 C         143.2313  135.7742  157.3921 C.ar    1  UNL1        0.0085
     24 C         143.7029  133.6886  155.9163 C.3     1  UNL1        0.4187
     25 F         144.5432  132.4887  155.5937 F       1  UNL1       -0.1659
     26 F         143.0837  133.6219  154.5517 F       1  UNL1       -0.1659
     27 F         144.3222  133.7554  157.2809 F       1  UNL1       -0.1659
     28 N         141.8229  140.7552  169.1864 N.3     1  UNL1       -0.2741
     29 C         142.7751  140.4764  170.3113 C.3     1  UNL1        0.0896
     30 C         139.2745  140.5767  169.6595 C.3     1  UNL1        0.0173
     31 C         140.5043  141.4134  169.4656 C.3     1  UNL1        0.0576
     32 C         140.4154  142.9084  169.5511 C.3     1  UNL1        0.0173
     33 C         141.8212  141.8010  164.0965 C.3     1  UNL1        0.1576
     34 S         140.8839  141.3178  163.0299 S.O2    1  UNL1        0.0087
     35 O         141.8119  141.8446  161.9757 O.2     1  UNL1       -0.1686
     36 O         139.9559  140.7910  164.0840 O.2     1  UNL1       -0.1686
     37 C         139.9465  140.8346  161.9631 C.ar    1  UNL1        0.1057
     38 C         140.4603  140.5621  160.5804 C.ar    1  UNL1        0.0183
     39 C         139.5230  140.0789  159.5137 C.ar    1  UNL1        0.0013
     40 C         138.0719  139.8681  159.8296 C.ar    1  UNL1        0.0001
     41 C         137.5581  140.1406  161.2123 C.ar    1  UNL1        0.0013
     42 C         138.4954  140.6238  162.2790 C.ar    1  UNL1        0.0183
@<TRIPOS>BOND
     1    30    31    1
     2    31    32    1
     3    31    28    1
     4    28    29    1
     5     1    28    1
     6     1     2    1
     7     2     3    1
     8     3     4    1
     9     4     7    1
    10     7     8    1
    11     8     9    1
    12     9    10    1
    13    10    13    1
    14    13    14   am
    15    14    15    2
    16    14    17    1
    17    17    18   ar
    18    18    19   ar
    19    19    20    1
    20    19    21   ar
    21    21    22   ar
    22    22    24    1
    23    24    25    1
    24    24    26    1
    25    24    27    1
    26    22    23   ar
    27    10    11    1
    28    11    12    2
    29     4     5    1
    30     5    33    1
    31    33    34    1
    32    34    35    2
    33    34    36    2
    34    34    37    1
    35    37    38   ar
    36    38    39   ar
    37    39    40   ar
    38    40    41   ar
    39    41    42   ar
    40     5     6    1
    41     6     1    1
    42    11     7   am
    43    42    37   ar
    44    23    17   ar
    45    13    16    1
@<TRIPOS>MOLECULE
*****
 42 45 0 0 0
SMALL
GASTEIGER

@<TRIPOS>ATOM
      1 C         141.7546  139.6551  167.5705 C.3     1  UNL1        0.0577
      2 C         143.0639  138.9783  167.2916 C.3     1  UNL1        0.0177
      3 C         143.4911  138.7258  165.8761 C.3     1  UNL1        0.0212
      4 C         142.6091  139.1500  164.7394 C.3     1  UNL1        0.0771
      5 C         141.2999  139.8269  165.0183 C.3     1  UNL1        0.0436
      6 C         140.8727  140.0794  166.4338 C.3     1  UNL1        0.0194
      7 N         143.0363  138.8975  163.3239 N.am    1  UNL1       -0.2797
      8 C         144.1549  139.5903  162.6036 C.3     1  UNL1        0.0956
      9 C         144.2299  139.0288  161.2147 C.3     1  UNL1        0.0505
     10 C         143.1577  137.9889  161.0766 C.3     1  UNL1        0.1507
     11 C         142.4201  137.9078  162.3802 C.2     1  UNL1        0.2435
     12 O         141.2684  136.9968  162.6862 O.2     1  UNL1       -0.2731
     13 N         142.8731  137.1734  159.8503 N.am    1  UNL1       -0.2948
     14 C         142.4155  137.8474  158.5908 C.2     1  UNL1        0.2462
     15 O         142.2424  139.3370  158.5577 O.2     1  UNL1       -0.2701
     16 H         142.9867  136.1957  159.8720 H       1  UNL1        0.1501
     17 C         142.1309  137.0318  157.3646 C.ar    1  UNL1        0.0555
     18 C         143.0668  135.9308  156.9623 C.ar    1  UNL1        0.0341
     19 C         142.7823  135.1151  155.7360 C.ar    1  UNL1        0.1402
     20 F         143.7182  134.0141  155.3337 F       1  UNL1       -0.2042
     21 C         141.5618  135.4005  154.9120 C.ar    1  UNL1        0.0335
     22 C         140.6259  136.5015  155.3142 C.ar    1  UNL1        0.0738
     23 C         140.9104  137.3172  156.5406 C.ar    1  UNL1        0.0085
     24 C         139.4054  136.7869  154.4902 C.3     1  UNL1        0.4187
     25 F         138.1850  137.0722  153.6662 F       1  UNL1       -0.1659
     26 F         140.2223  136.6651  153.2381 F       1  UNL1       -0.1659
     27 F         138.5885  136.9086  155.7423 F       1  UNL1       -0.1659
     28 N         141.3274  139.9077  168.9860 N.3     1  UNL1       -0.2741
     29 C         142.0498  139.2394  170.1180 C.3     1  UNL1        0.0896
     30 C         138.8288  140.2634  169.6029 C.3     1  UNL1        0.0173
     31 C         140.1778  140.8285  169.2695 C.3     1  UNL1        0.0576
     32 C         140.3770  142.3144  169.2196 C.3     1  UNL1        0.0173
     33 C         140.4178  140.2512  163.8816 C.3     1  UNL1        0.1576
     34 S         140.3228  141.7004  163.5066 S.O2    1  UNL1        0.0087
     35 O         139.2760  141.9047  164.5613 O.2     1  UNL1       -0.1686
     36 O         141.3696  141.4961  162.4519 O.2     1  UNL1       -0.1686
     37 C         140.2278  143.1497  163.1316 C.ar    1  UNL1        0.1057
     38 C         141.4491  144.0191  163.1819 C.ar    1  UNL1        0.0183
     39 C         141.3541  145.4683  162.8069 C.ar    1  UNL1        0.0013
     40 C         140.0378  146.0482  162.3816 C.ar    1  UNL1        0.0001
     41 C         138.8164  145.1788  162.3313 C.ar    1  UNL1        0.0013
     42 C         138.9114  143.7296  162.7062 C.ar    1  UNL1        0.0183
@<TRIPOS>BOND
     1    30    31    1
     2    31    32    1
     3    31    28    1
     4    28    29    1
     5     1    28    1
     6     1     2    1
     7     2     3    1
     8     3     4    1
     9     4     7    1
    10     7     8    1
    11     8     9    1
    12     9    10    1
    13    10    13    1
    14    13    14   am
    15    14    15    2
    16    14    17    1
    17    17    18   ar
    18    18    19   ar
    19    19    20    1
    20    19    21   ar
    21    21    22   ar
    22    22    24    1
    23    24    25    1
    24    24    26    1
    25    24    27    1
    26    22    23   ar
    27    10    11    1
    28    11    12    2
    29     4     5    1
    30     5    33    1
    31    33    34    1
    32    34    35    2
    33    34    36    2
    34    34    37    1
    35    37    38   ar
    36    38    39   ar
    37    39    40   ar
    38    40    41   ar
    39    41    42   ar
    40     5     6    1
    41     6     1    1
    42    11     7   am
    43    42    37   ar
    44    23    17   ar
    45    13    16    1
@<TRIPOS>MOLECULE
*****
 42 45 0 0 0
SMALL
GASTEIGER

@<TRIPOS>ATOM
      1 C         140.4163  141.0556  168.2567 C.3     1  UNL1        0.0577
      2 C         140.6349  142.4883  167.8699 C.3     1  UNL1        0.0177
      3 C         140.1962  142.9762  166.5210 C.3     1  UNL1        0.0212
      4 C         139.5390  142.0316  165.5590 C.3     1  UNL1        0.0771
      5 C         139.3205  140.5989  165.9458 C.3     1  UNL1        0.0436
      6 C         139.7591  140.1109  167.2947 C.3     1  UNL1        0.0194
      7 N         139.1004  142.5195  164.2101 N.am    1  UNL1       -0.2797
      8 C         137.7244  142.9952  163.8492 C.3     1  UNL1        0.0956
      9 C         137.7343  143.3872  162.4013 C.3     1  UNL1        0.0505
     10 C         139.1165  143.1538  161.8674 C.3     1  UNL1        0.1507
     11 C         139.9607  142.6175  162.9853 C.2     1  UNL1        0.2435
     12 O         141.4108  142.2448  162.8943 O.2     1  UNL1       -0.2731
     13 N         139.5740  143.4113  160.4623 N.am    1  UNL1       -0.2948
     14 C         140.1839  144.7337  160.1027 C.2     1  UNL1        0.2462
     15 O         140.3362  145.7985  161.1481 O.2     1  UNL1       -0.2701
     16 H         139.4741  142.7124  159.7762 H       1  UNL1        0.1501
     17 C         140.6415  144.9912  158.6976 C.ar    1  UNL1        0.0555
     18 C         141.7677  144.1886  158.1167 C.ar    1  UNL1        0.0341
     19 C         142.2253  144.4461  156.7115 C.ar    1  UNL1        0.1402
     20 F         143.3516  143.6435  156.1306 F       1  UNL1       -0.2042
     21 C         141.5567  145.5061  155.8873 C.ar    1  UNL1        0.0335
     22 C         140.4304  146.3087  156.4683 C.ar    1  UNL1        0.0738
     23 C         139.9728  146.0512  157.8734 C.ar    1  UNL1        0.0085
     24 C         139.7618  147.3687  155.6441 C.3     1  UNL1        0.4187
     25 F         139.0932  148.4287  154.8199 F       1  UNL1       -0.1659
     26 F         140.6129  146.9912  154.4681 F       1  UNL1       -0.1659
     27 F         138.9107  147.7463  156.8202 F       1  UNL1       -0.1659
     28 N         140.8550  140.5676  169.6056 N.3     1  UNL1       -0.2741
     29 C         139.8599  140.4544  170.7223 C.3     1  UNL1        0.0896
     30 C         142.6752  138.7493  169.9668 C.3     1  UNL1        0.0173
     31 C         142.2887  140.1929  169.8378 C.3     1  UNL1        0.0576
     32 C         143.3360  141.2618  169.9411 C.3     1  UNL1        0.0173
     33 C         138.6632  139.6541  164.9837 C.3     1  UNL1        0.1576
     34 S         139.3441  139.3029  163.6942 S.O2    1  UNL1        0.0087
     35 O         140.6045  138.9901  164.4448 O.2     1  UNL1       -0.1686
     36 O         138.0837  139.6157  162.9435 O.2     1  UNL1       -0.1686
     37 C         140.0250  138.9516  162.4045 C.ar    1  UNL1        0.1057
     38 C         139.3281  139.1933  161.0984 C.ar    1  UNL1        0.0183
     39 C         140.0089  138.8421  159.8088 C.ar    1  UNL1        0.0013
     40 C         141.3866  138.2492  159.8254 C.ar    1  UNL1        0.0001
     41 C         142.0835  138.0076  161.1315 C.ar    1  UNL1        0.0013
     42 C         141.4027  138.3588  162.4211 C.ar    1  UNL1        0.0183
@<TRIPOS>BOND
     1    30    31    1
     2    31    32    1
     3    31    28    1
     4    28    29    1
     5     1    28    1
     6     1     2    1
     7     2     3    1
     8     3     4    1
     9     4     7    1
    10     7     8    1
    11     8     9    1
    12     9    10    1
    13    10    13    1
    14    13    14   am
    15    14    15    2
    16    14    17    1
    17    17    18   ar
    18    18    19   ar
    19    19    20    1
    20    19    21   ar
    21    21    22   ar
    22    22    24    1
    23    24    25    1
    24    24    26    1
    25    24    27    1
    26    22    23   ar
    27    10    11    1
    28    11    12    2
    29     4     5    1
    30     5    33    1
    31    33    34    1
    32    34    35    2
    33    34    36    2
    34    34    37    1
    35    37    38   ar
    36    38    39   ar
    37    39    40   ar
    38    40    41   ar
    39    41    42   ar
    40     5     6    1
    41     6     1    1
    42    11     7   am
    43    42    37   ar
    44    23    17   ar
    45    13    16    1
