@<TRIPOS>MOLECULE
*****
 32 35 0 0 0
SMALL
GASTEIGER

@<TRIPOS>ATOM
      1 C         140.3906  144.7045  158.4019 C.2     1  UNL1        0.2419
      2 O         139.4210  144.2038  157.3728 O.2     1  UNL1       -0.2734
      3 N         140.4802  144.0302  159.7388 N.am    1  UNL1       -0.2694
      4 C         141.4498  144.5309  160.7679 C.3     1  UNL1        0.1184
      5 C         141.5394  143.8566  162.1048 C.3     1  UNL1        0.1299
      6 N         140.6594  142.6815  162.4125 N.ar    1  UNL1       -0.3005
      7 C         139.6898  142.1808  161.3834 C.ar    1  UNL1        0.1416
      8 N         138.9561  141.0104  161.9684 N.ar    1  UNL1       -0.2279
      9 C         139.4724  140.7879  163.3591 C.ar    1  UNL1        0.1125
     10 C         140.5250  141.8207  163.6336 C.ar    1  UNL1        0.1318
     11 C         139.6002  142.8551  160.0465 C.3     1  UNL1        0.1578
     12 C         139.0160  139.7201  164.3087 C.ar    1  UNL1        0.0205
     13 C         139.2972  138.2780  164.0068 C.ar    1  UNL1        0.0039
     14 C         138.8409  137.2102  164.9563 C.ar    1  UNL1        0.0297
     15 C         138.1034  137.5846  166.2077 C.ar    1  UNL1        0.1401
     16 F         137.6471  136.5168  167.1573 F       1  UNL1       -0.2042
     17 C         137.8223  139.0267  166.5095 C.ar    1  UNL1        0.0297
     18 C         138.2786  140.0945  165.5600 C.ar    1  UNL1        0.0039
     19 N         142.6357  145.6622  157.5116 N.3     1  UNL1       -0.3135
     20 C         141.2706  145.8796  158.0941 C.3     1  UNL1        0.1517
     21 H         143.0912  146.5633  157.3673 H       1  UNL1        0.1193
     22 H         142.5508  145.1772  156.6183 H       1  UNL1        0.1193
     23 N         141.3062  141.9670  164.9057 N.pl3   1  UNL1       -0.2980
     24 H         141.3153  142.8289  165.3814 H       1  UNL1        0.1536
     25 C         142.0735  140.8001  165.4531 C.ar    1  UNL1        0.0517
     26 C         142.9617  139.9965  164.5503 C.ar    1  UNL1        0.0157
     27 C         143.7290  138.8296  165.0978 C.ar    1  UNL1        0.0149
     28 C         143.6080  138.4664  166.5482 C.ar    1  UNL1        0.0851
     29 CL        144.3753  137.2995  167.0956 Cl      1  UNL1       -0.0799
     30 C         142.7198  139.2701  167.4510 C.ar    1  UNL1        0.1518
     31 F         142.5988  138.9069  168.9013 F       1  UNL1       -0.2032
     32 C         141.9525  140.4369  166.9035 C.ar    1  UNL1        0.0451
@<TRIPOS>BOND
     1    19    20    1
     2    20     1    1
     3     1     2    2
     4     1     3   am
     5     3     4    1
     6     4     5    1
     7     5     6    1
     8     6     7   ar
     9     7     8   ar
    10     8     9   ar
    11     9    12    1
    12    12    13   ar
    13    13    14   ar
    14    14    15   ar
    15    15    16    1
    16    15    17   ar
    17    17    18   ar
    18     9    10   ar
    19    10    23    1
    20    23    25    1
    21    25    26   ar
    22    26    27   ar
    23    27    28   ar
    24    28    29    1
    25    28    30   ar
    26    30    31    1
    27    30    32   ar
    28     7    11    1
    29    11     3    1
    30    10     6   ar
    31    32    25   ar
    32    18    12   ar
    33    19    21    1
    34    19    22    1
    35    23    24    1
@<TRIPOS>MOLECULE
*****
 32 35 0 0 0
SMALL
GASTEIGER

@<TRIPOS>ATOM
      1 C         141.1329  144.1747  158.3332 C.2     1  UNL1        0.2419
      2 O         139.7769  144.4842  157.7716 O.2     1  UNL1       -0.2734
      3 N         141.2631  143.2741  159.5256 N.am    1  UNL1       -0.2694
      4 C         142.6191  142.9645  160.0872 C.3     1  UNL1        0.1184
      5 C         142.7493  142.0639  161.2796 C.3     1  UNL1        0.1299
      6 N         141.5236  141.4728  161.9105 N.ar    1  UNL1       -0.3005
      7 C         140.1676  141.7824  161.3489 C.ar    1  UNL1        0.1416
      8 N         139.1469  141.0589  162.1765 N.ar    1  UNL1       -0.2279
      9 C         139.8721  140.3023  163.2496 C.ar    1  UNL1        0.1125
     10 C         141.3410  140.5581  163.0852 C.ar    1  UNL1        0.1318
     11 C         140.0373  142.6830  160.1565 C.3     1  UNL1        0.1578
     12 C         139.2396  139.4410  164.3023 C.ar    1  UNL1        0.0205
     13 C         138.5623  140.0737  165.4817 C.ar    1  UNL1        0.0039
     14 C         137.9298  139.2126  166.5344 C.ar    1  UNL1        0.0297
     15 C         137.9745  137.7186  166.4077 C.ar    1  UNL1        0.1401
     16 F         137.3420  136.8573  167.4605 F       1  UNL1       -0.2042
     17 C         138.6518  137.0859  165.2284 C.ar    1  UNL1        0.0297
     18 C         139.2843  137.9471  164.1757 C.ar    1  UNL1        0.0039
     19 N         142.5411  146.2542  157.6681 N.3     1  UNL1       -0.3135
     20 C         142.3587  144.7658  157.7023 C.3     1  UNL1        0.1517
     21 H         143.4224  146.4782  157.2060 H       1  UNL1        0.1193
     22 H         142.5552  146.6171  158.6213 H       1  UNL1        0.1193
     23 N         142.4352  139.9976  163.9445 N.pl3   1  UNL1       -0.2980
     24 H         143.0573  139.3295  163.5759 H       1  UNL1        0.1536
     25 C         142.5816  140.4549  165.3656 C.ar    1  UNL1        0.0517
     26 C         142.9836  141.8695  165.6606 C.ar    1  UNL1        0.0157
     27 C         143.1300  142.3268  167.0818 C.ar    1  UNL1        0.0149
     28 C         142.8744  141.3694  168.2078 C.ar    1  UNL1        0.0851
     29 CL        143.0208  141.8267  169.6288 Cl      1  UNL1       -0.0799
     30 C         142.4723  139.9547  167.9128 C.ar    1  UNL1        0.1518
     31 F         142.2167  138.9973  169.0388 F       1  UNL1       -0.2032
     32 C         142.3259  139.4975  166.4917 C.ar    1  UNL1        0.0451
@<TRIPOS>BOND
     1    19    20    1
     2    20     1    1
     3     1     2    2
     4     1     3   am
     5     3     4    1
     6     4     5    1
     7     5     6    1
     8     6     7   ar
     9     7     8   ar
    10     8     9   ar
    11     9    12    1
    12    12    13   ar
    13    13    14   ar
    14    14    15   ar
    15    15    16    1
    16    15    17   ar
    17    17    18   ar
    18     9    10   ar
    19    10    23    1
    20    23    25    1
    21    25    26   ar
    22    26    27   ar
    23    27    28   ar
    24    28    29    1
    25    28    30   ar
    26    30    31    1
    27    30    32   ar
    28     7    11    1
    29    11     3    1
    30    10     6   ar
    31    32    25   ar
    32    18    12   ar
    33    19    21    1
    34    19    22    1
    35    23    24    1
@<TRIPOS>MOLECULE
*****
 32 35 0 0 0
SMALL
GASTEIGER

@<TRIPOS>ATOM
      1 C         142.3536  138.4012  156.7403 C.2     1  UNL1        0.2419
      2 O         141.8168  139.2389  155.6178 O.2     1  UNL1       -0.2734
      3 N         142.1244  138.8178  158.1629 N.am    1  UNL1       -0.2694
      4 C         142.6613  137.9802  159.2855 C.3     1  UNL1        0.1184
      5 C         142.4320  138.3967  160.7081 C.3     1  UNL1        0.1299
      6 N         141.6660  139.6509  161.0082 N.ar    1  UNL1       -0.3005
      7 C         141.1292  140.4885  159.8857 C.ar    1  UNL1        0.1416
      8 N         140.4167  141.6649  160.4848 N.ar    1  UNL1       -0.2279
      9 C         140.5133  141.5542  161.9775 C.ar    1  UNL1        0.1125
     10 C         141.2854  140.3095  162.3011 C.ar    1  UNL1        0.1318
     11 C         141.3584  140.0720  158.4631 C.3     1  UNL1        0.1578
     12 C         139.9387  142.5188  162.9722 C.ar    1  UNL1        0.0205
     13 C         140.7566  143.6834  163.4464 C.ar    1  UNL1        0.0039
     14 C         140.1820  144.6480  164.4410 C.ar    1  UNL1        0.0297
     15 C         138.7895  144.4480  164.9615 C.ar    1  UNL1        0.1401
     16 F         138.2149  145.4127  165.9562 F       1  UNL1       -0.2042
     17 C         137.9716  143.2835  164.4874 C.ar    1  UNL1        0.0297
     18 C         138.5462  142.3189  163.4928 C.ar    1  UNL1        0.0039
     19 N         144.4411  137.2260  155.7348 N.3     1  UNL1       -0.3135
     20 C         143.1197  137.1471  156.4402 C.3     1  UNL1        0.1517
     21 H         144.8186  136.2862  155.6138 H       1  UNL1        0.1193
     22 H         145.0899  137.7842  156.2897 H       1  UNL1        0.1193
     23 N         141.6184  139.8109  163.6760 N.pl3   1  UNL1       -0.2980
     24 H         142.5564  139.7754  163.9730 H       1  UNL1        0.1536
     25 C         140.5224  139.3663  164.5985 C.ar    1  UNL1        0.0517
     26 C         139.6393  138.2161  164.2146 C.ar    1  UNL1        0.0157
     27 C         138.5432  137.7716  165.1373 C.ar    1  UNL1        0.0149
     28 C         138.3303  138.4772  166.4437 C.ar    1  UNL1        0.0851
     29 CL        137.2343  138.0326  167.3662 Cl      1  UNL1       -0.0799
     30 C         139.2134  139.6273  166.8276 C.ar    1  UNL1        0.1518
     31 F         139.0004  140.3330  168.1340 F       1  UNL1       -0.2032
     32 C         140.3094  140.0719  165.9050 C.ar    1  UNL1        0.0451
@<TRIPOS>BOND
     1    19    20    1
     2    20     1    1
     3     1     2    2
     4     1     3   am
     5     3     4    1
     6     4     5    1
     7     5     6    1
     8     6     7   ar
     9     7     8   ar
    10     8     9   ar
    11     9    12    1
    12    12    13   ar
    13    13    14   ar
    14    14    15   ar
    15    15    16    1
    16    15    17   ar
    17    17    18   ar
    18     9    10   ar
    19    10    23    1
    20    23    25    1
    21    25    26   ar
    22    26    27   ar
    23    27    28   ar
    24    28    29    1
    25    28    30   ar
    26    30    31    1
    27    30    32   ar
    28     7    11    1
    29    11     3    1
    30    10     6   ar
    31    32    25   ar
    32    18    12   ar
    33    19    21    1
    34    19    22    1
    35    23    24    1
@<TRIPOS>MOLECULE
*****
 32 35 0 0 0
SMALL
GASTEIGER

@<TRIPOS>ATOM
      1 C         141.4555  138.2776  156.0441 C.2     1  UNL1        0.2419
      2 O         140.1353  138.5100  155.3712 O.2     1  UNL1       -0.2734
      3 N         141.5381  138.2410  157.5414 N.am    1  UNL1       -0.2694
      4 C         142.8584  138.0085  158.2142 C.3     1  UNL1        0.1184
      5 C         142.9410  137.9719  159.7115 C.3     1  UNL1        0.1299
      6 N         141.7033  138.1678  160.5359 N.ar    1  UNL1       -0.3005
      7 C         140.3830  138.4003  159.8631 C.ar    1  UNL1        0.1416
      8 N         139.3407  138.5596  160.9300 N.ar    1  UNL1       -0.2279
      9 C         140.0168  138.4256  162.2622 C.ar    1  UNL1        0.1125
     10 C         141.4770  138.1835  162.0187 C.ar    1  UNL1        0.1318
     11 C         140.3004  138.4369  158.3658 C.3     1  UNL1        0.1578
     12 C         139.3499  138.5176  163.6027 C.ar    1  UNL1        0.0205
     13 C         138.9096  139.8504  164.1314 C.ar    1  UNL1        0.0039
     14 C         138.2427  139.9425  165.4718 C.ar    1  UNL1        0.0297
     15 C         138.0161  138.7016  166.2835 C.ar    1  UNL1        0.1401
     16 F         137.3492  138.7936  167.6240 F       1  UNL1       -0.2042
     17 C         138.4564  137.3687  165.7548 C.ar    1  UNL1        0.0297
     18 C         139.1233  137.2767  164.4144 C.ar    1  UNL1        0.0039
     19 N         143.0097  136.7301  154.6513 N.3     1  UNL1       -0.3135
     20 C         142.6932  138.0817  155.2197 C.3     1  UNL1        0.1517
     21 H         143.8805  136.7791  154.1225 H       1  UNL1        0.1193
     22 H         142.2531  136.4353  154.0339 H       1  UNL1        0.1193
     23 N         142.5266  137.9908  163.0728 N.pl3   1  UNL1       -0.2980
     24 H         143.1505  137.2316  163.0132 H       1  UNL1        0.1536
     25 C         142.6255  138.9548  164.2177 C.ar    1  UNL1        0.0517
     26 C         142.6643  140.4309  163.9542 C.ar    1  UNL1        0.0157
     27 C         142.7633  141.3949  165.0993 C.ar    1  UNL1        0.0149
     28 C         142.8235  140.8826  166.5078 C.ar    1  UNL1        0.0851
     29 CL        142.9225  141.8466  167.6527 Cl      1  UNL1       -0.0799
     30 C         142.7847  139.4065  166.7713 C.ar    1  UNL1        0.1518
     31 F         142.8449  138.8942  168.1799 F       1  UNL1       -0.2032
     32 C         142.6858  138.4426  165.6263 C.ar    1  UNL1        0.0451
@<TRIPOS>BOND
     1    19    20    1
     2    20     1    1
     3     1     2    2
     4     1     3   am
     5     3     4    1
     6     4     5    1
     7     5     6    1
     8     6     7   ar
     9     7     8   ar
    10     8     9   ar
    11     9    12    1
    12    12    13   ar
    13    13    14   ar
    14    14    15   ar
    15    15    16    1
    16    15    17   ar
    17    17    18   ar
    18     9    10   ar
    19    10    23    1
    20    23    25    1
    21    25    26   ar
    22    26    27   ar
    23    27    28   ar
    24    28    29    1
    25    28    30   ar
    26    30    31    1
    27    30    32   ar
    28     7    11    1
    29    11     3    1
    30    10     6   ar
    31    32    25   ar
    32    18    12   ar
    33    19    21    1
    34    19    22    1
    35    23    24    1
@<TRIPOS>MOLECULE
*****
 32 35 0 0 0
SMALL
GASTEIGER

@<TRIPOS>ATOM
      1 C         141.1607  138.2481  155.9578 C.2     1  UNL1        0.2419
      2 O         139.8048  138.3639  155.3270 O.2     1  UNL1       -0.2734
      3 N         141.2968  138.2625  157.4515 N.am    1  UNL1       -0.2694
      4 C         142.6528  138.1467  158.0822 C.3     1  UNL1        0.1184
      5 C         142.7889  138.1611  159.5760 C.3     1  UNL1        0.1299
      6 N         141.5690  138.2913  160.4390 N.ar    1  UNL1       -0.3005
      7 C         140.2130  138.4071  159.8083 C.ar    1  UNL1        0.1416
      8 N         139.1987  138.5224  160.9074 N.ar    1  UNL1       -0.2279
      9 C         139.9279  138.4777  162.2175 C.ar    1  UNL1        0.1125
     10 C         141.3928  138.3349  161.9280 C.ar    1  UNL1        0.1318
     11 C         140.0769  138.3927  158.3145 C.3     1  UNL1        0.1578
     12 C         139.3022  138.5613  163.5782 C.ar    1  UNL1        0.0205
     13 C         138.7390  139.8631  164.0661 C.ar    1  UNL1        0.0039
     14 C         138.1132  139.9467  165.4267 C.ar    1  UNL1        0.0297
     15 C         138.0507  138.7284  166.2995 C.ar    1  UNL1        0.1401
     16 F         137.4249  138.8119  167.6603 F       1  UNL1       -0.2042
     17 C         138.6139  137.4265  165.8117 C.ar    1  UNL1        0.0297
     18 C         139.2396  137.3430  164.4510 C.ar    1  UNL1        0.0039
     19 N         142.3935  137.1406  153.9569 N.3     1  UNL1       -0.3135
     20 C         142.3806  138.1179  155.0947 C.3     1  UNL1        0.1517
     21 H         143.2948  137.1844  153.4813 H       1  UNL1        0.1193
     22 H         141.6502  137.3749  153.2990 H       1  UNL1        0.1193
     23 N         142.4891  138.2506  162.9483 N.pl3   1  UNL1       -0.2980
     24 H         142.8372  137.3723  163.2253 H       1  UNL1        0.1536
     25 C         143.0550  139.5042  163.5466 C.ar    1  UNL1        0.0517
     26 C         142.2706  140.2654  164.5740 C.ar    1  UNL1        0.0157
     27 C         142.8366  141.5191  165.1723 C.ar    1  UNL1        0.0149
     28 C         144.1869  142.0117  164.7432 C.ar    1  UNL1        0.0851
     29 CL        144.7528  143.2653  165.3415 Cl      1  UNL1       -0.0799
     30 C         144.9713  141.2505  163.7159 C.ar    1  UNL1        0.1518
     31 F         146.3216  141.7430  163.2868 F       1  UNL1       -0.2032
     32 C         144.4053  139.9968  163.1176 C.ar    1  UNL1        0.0451
@<TRIPOS>BOND
     1    19    20    1
     2    20     1    1
     3     1     2    2
     4     1     3   am
     5     3     4    1
     6     4     5    1
     7     5     6    1
     8     6     7   ar
     9     7     8   ar
    10     8     9   ar
    11     9    12    1
    12    12    13   ar
    13    13    14   ar
    14    14    15   ar
    15    15    16    1
    16    15    17   ar
    17    17    18   ar
    18     9    10   ar
    19    10    23    1
    20    23    25    1
    21    25    26   ar
    22    26    27   ar
    23    27    28   ar
    24    28    29    1
    25    28    30   ar
    26    30    31    1
    27    30    32   ar
    28     7    11    1
    29    11     3    1
    30    10     6   ar
    31    32    25   ar
    32    18    12   ar
    33    19    21    1
    34    19    22    1
    35    23    24    1
@<TRIPOS>MOLECULE
*****
 32 35 0 0 0
SMALL
GASTEIGER

@<TRIPOS>ATOM
      1 C         143.1613  141.5869  158.9966 C.2     1  UNL1        0.2419
      2 O         142.0220  141.8703  158.0630 O.2     1  UNL1       -0.2734
      3 N         142.8902  141.0361  160.3652 N.am    1  UNL1       -0.2694
      4 C         144.0294  140.7527  161.2989 C.3     1  UNL1        0.1184
      5 C         143.7583  140.2019  162.6675 C.3     1  UNL1        0.1299
      6 N         142.3479  139.9345  163.1025 N.ar    1  UNL1       -0.3005
      7 C         141.2087  140.2179  162.1688 C.ar    1  UNL1        0.1416
      8 N         139.9332  139.8562  162.8706 N.ar    1  UNL1       -0.2279
      9 C         140.2842  139.3493  164.2380 C.ar    1  UNL1        0.1125
     10 C         141.7766  139.3977  164.3813 C.ar    1  UNL1        0.1318
     11 C         141.4798  140.7687  160.8002 C.3     1  UNL1        0.1578
     12 C         139.3134  138.8768  165.2794 C.ar    1  UNL1        0.0205
     13 C         138.7015  137.5117  165.1699 C.ar    1  UNL1        0.0039
     14 C         137.7307  137.0392  166.2112 C.ar    1  UNL1        0.0297
     15 C         137.3718  137.9319  167.3619 C.ar    1  UNL1        0.1401
     16 F         136.4009  137.4595  168.4032 F       1  UNL1       -0.2042
     17 C         137.9837  139.2971  167.4713 C.ar    1  UNL1        0.0297
     18 C         138.9545  139.7695  166.4301 C.ar    1  UNL1        0.0039
     19 N         144.8675  142.9987  157.6381 N.3     1  UNL1       -0.3135
     20 C         144.5717  141.8543  158.5617 C.3     1  UNL1        0.1517
     21 H         145.8692  143.0324  157.4486 H       1  UNL1        0.1193
     22 H         144.5745  143.8726  158.0748 H       1  UNL1        0.1193
     23 N         142.5601  138.9822  165.5910 N.pl3   1  UNL1       -0.2980
     24 H         142.9708  138.0882  165.6283 H       1  UNL1        0.1536
     25 C         142.7180  139.9287  166.7439 C.ar    1  UNL1        0.0517
     26 C         142.9264  141.3922  166.4896 C.ar    1  UNL1        0.0157
     27 C         143.0843  142.3388  167.6426 C.ar    1  UNL1        0.0149
     28 C         143.0338  141.8217  169.0498 C.ar    1  UNL1        0.0851
     29 CL        143.1916  142.7682  170.2026 Cl      1  UNL1       -0.0799
     30 C         142.8254  140.3582  169.3040 C.ar    1  UNL1        0.1518
     31 F         142.7748  139.8411  170.7112 F       1  UNL1       -0.2032
     32 C         142.6675  139.4117  168.1511 C.ar    1  UNL1        0.0451
@<TRIPOS>BOND
     1    19    20    1
     2    20     1    1
     3     1     2    2
     4     1     3   am
     5     3     4    1
     6     4     5    1
     7     5     6    1
     8     6     7   ar
     9     7     8   ar
    10     8     9   ar
    11     9    12    1
    12    12    13   ar
    13    13    14   ar
    14    14    15   ar
    15    15    16    1
    16    15    17   ar
    17    17    18   ar
    18     9    10   ar
    19    10    23    1
    20    23    25    1
    21    25    26   ar
    22    26    27   ar
    23    27    28   ar
    24    28    29    1
    25    28    30   ar
    26    30    31    1
    27    30    32   ar
    28     7    11    1
    29    11     3    1
    30    10     6   ar
    31    32    25   ar
    32    18    12   ar
    33    19    21    1
    34    19    22    1
    35    23    24    1
@<TRIPOS>MOLECULE
*****
 32 35 0 0 0
SMALL
GASTEIGER

@<TRIPOS>ATOM
      1 C         139.5465  141.1339  169.7323 C.2     1  UNL1        0.2419
      2 O         138.6991  139.9488  170.0891 O.2     1  UNL1       -0.2734
      3 N         140.2506  141.1812  168.4086 N.am    1  UNL1       -0.2694
      4 C         141.0980  142.3663  168.0518 C.3     1  UNL1        0.1184
      5 C         141.8021  142.4136  166.7282 C.3     1  UNL1        0.1299
      6 N         141.6587  141.2758  165.7613 N.ar    1  UNL1       -0.3005
      7 C         140.8113  140.0907  166.1181 C.ar    1  UNL1        0.1416
      8 N         140.8572  139.1256  164.9707 N.ar    1  UNL1       -0.2279
      9 C         141.7331  139.7143  163.9047 C.ar    1  UNL1        0.1125
     10 C         142.2284  141.0432  164.3934 C.ar    1  UNL1        0.1318
     11 C         140.1072  140.0434  167.4418 C.3     1  UNL1        0.1578
     12 C         142.0569  139.0847  162.5823 C.ar    1  UNL1        0.0205
     13 C         143.3720  138.3912  162.3837 C.ar    1  UNL1        0.0039
     14 C         143.6958  137.7616  161.0613 C.ar    1  UNL1        0.0297
     15 C         142.7044  137.8255  159.9375 C.ar    1  UNL1        0.1401
     16 F         143.0282  137.1959  158.6150 F       1  UNL1       -0.2042
     17 C         141.3893  138.5190  160.1360 C.ar    1  UNL1        0.0297
     18 C         141.0655  139.1486  161.4584 C.ar    1  UNL1        0.0039
     19 N         140.5942  142.1361  171.8881 N.3     1  UNL1       -0.3135
     20 C         139.6899  142.2717  170.6991 C.3     1  UNL1        0.1517
     21 H         140.5706  142.9979  172.4332 H       1  UNL1        0.1193
     22 H         141.5478  141.9600  171.5717 H       1  UNL1        0.1193
     23 N         143.1344  141.9757  163.6454 N.pl3   1  UNL1       -0.2980
     24 H         144.0922  142.0167  163.8695 H       1  UNL1        0.1536
     25 C         142.5812  142.8458  162.5560 C.ar    1  UNL1        0.0517
     26 C         142.8149  142.4874  161.1183 C.ar    1  UNL1        0.0157
     27 C         142.2617  143.3577  160.0289 C.ar    1  UNL1        0.0149
     28 C         141.4747  144.5862  160.3772 C.ar    1  UNL1        0.0851
     29 CL        140.9215  145.4563  159.2878 Cl      1  UNL1       -0.0799
     30 C         141.2410  144.9446  161.8149 C.ar    1  UNL1        0.1518
     31 F         140.4541  146.1732  162.1632 F       1  UNL1       -0.2032
     32 C         141.7943  144.0745  162.9043 C.ar    1  UNL1        0.0451
@<TRIPOS>BOND
     1    19    20    1
     2    20     1    1
     3     1     2    2
     4     1     3   am
     5     3     4    1
     6     4     5    1
     7     5     6    1
     8     6     7   ar
     9     7     8   ar
    10     8     9   ar
    11     9    12    1
    12    12    13   ar
    13    13    14   ar
    14    14    15   ar
    15    15    16    1
    16    15    17   ar
    17    17    18   ar
    18     9    10   ar
    19    10    23    1
    20    23    25    1
    21    25    26   ar
    22    26    27   ar
    23    27    28   ar
    24    28    29    1
    25    28    30   ar
    26    30    31    1
    27    30    32   ar
    28     7    11    1
    29    11     3    1
    30    10     6   ar
    31    32    25   ar
    32    18    12   ar
    33    19    21    1
    34    19    22    1
    35    23    24    1
@<TRIPOS>MOLECULE
*****
 32 35 0 0 0
SMALL
GASTEIGER

@<TRIPOS>ATOM
      1 C         142.1048  140.1798  170.2705 C.2     1  UNL1        0.2419
      2 O         143.3828  139.5112  170.6823 O.2     1  UNL1       -0.2734
      3 N         141.7109  140.2182  168.8236 N.am    1  UNL1       -0.2694
      4 C         140.4329  140.8868  168.4118 C.3     1  UNL1        0.1184
      5 C         140.0390  140.9252  166.9649 C.3     1  UNL1        0.1299
      6 N         140.9231  140.2951  165.9299 N.ar    1  UNL1       -0.3005
      7 C         142.2011  139.6265  166.3418 C.ar    1  UNL1        0.1416
      8 N         142.8652  139.0949  165.1063 N.ar    1  UNL1       -0.2279
      9 C         141.9976  139.4350  163.9309 C.ar    1  UNL1        0.1125
     10 C         140.7973  140.1767  164.4399 C.ar    1  UNL1        0.1318
     11 C         142.5950  139.5880  167.7886 C.3     1  UNL1        0.1578
     12 C         142.2806  139.0933  162.4979 C.ar    1  UNL1        0.0205
     13 C         141.1615  138.6725  161.5921 C.ar    1  UNL1        0.0039
     14 C         141.4444  138.3308  160.1593 C.ar    1  UNL1        0.0297
     15 C         142.8465  138.4100  159.6322 C.ar    1  UNL1        0.1401
     16 F         143.1295  138.0684  158.1992 F       1  UNL1       -0.2042
     17 C         143.9656  138.8309  160.5379 C.ar    1  UNL1        0.0297
     18 C         143.6827  139.1725  161.9708 C.ar    1  UNL1        0.0039
     19 N         141.4642  142.2253  171.7386 N.3     1  UNL1       -0.3135
     20 C         141.2208  140.8100  171.3054 C.3     1  UNL1        0.1517
     21 H         140.7748  142.4887  172.4427 H       1  UNL1        0.1193
     22 H         141.3822  142.8461  170.9335 H       1  UNL1        0.1193
     23 N         139.6693  140.7070  163.6055 N.pl3   1  UNL1       -0.2980
     24 H         138.9275  140.1138  163.3464 H       1  UNL1        0.1536
     25 C         139.6714  142.1411  163.1657 C.ar    1  UNL1        0.0517
     26 C         138.4135  142.9537  163.2512 C.ar    1  UNL1        0.0157
     27 C         138.4157  144.3879  162.8114 C.ar    1  UNL1        0.0149
     28 C         139.6759  145.0093  162.2861 C.ar    1  UNL1        0.0851
     29 CL        139.6780  146.4434  161.8463 Cl      1  UNL1       -0.0799
     30 C         140.9337  144.1967  162.2006 C.ar    1  UNL1        0.1518
     31 F         142.1938  144.8181  161.6752 F       1  UNL1       -0.2032
     32 C         140.9315  142.7626  162.6403 C.ar    1  UNL1        0.0451
@<TRIPOS>BOND
     1    19    20    1
     2    20     1    1
     3     1     2    2
     4     1     3   am
     5     3     4    1
     6     4     5    1
     7     5     6    1
     8     6     7   ar
     9     7     8   ar
    10     8     9   ar
    11     9    12    1
    12    12    13   ar
    13    13    14   ar
    14    14    15   ar
    15    15    16    1
    16    15    17   ar
    17    17    18   ar
    18     9    10   ar
    19    10    23    1
    20    23    25    1
    21    25    26   ar
    22    26    27   ar
    23    27    28   ar
    24    28    29    1
    25    28    30   ar
    26    30    31    1
    27    30    32   ar
    28     7    11    1
    29    11     3    1
    30    10     6   ar
    31    32    25   ar
    32    18    12   ar
    33    19    21    1
    34    19    22    1
    35    23    24    1
@<TRIPOS>MOLECULE
*****
 32 35 0 0 0
SMALL
GASTEIGER

@<TRIPOS>ATOM
      1 C         143.1821  139.2303  156.5848 C.2     1  UNL1        0.2419
      2 O         143.5521  140.4227  155.7533 O.2     1  UNL1       -0.2734
      3 N         142.4993  139.4206  157.9068 N.am    1  UNL1       -0.2694
      4 C         142.1294  138.2283  158.7383 C.3     1  UNL1        0.1184
      5 C         141.4466  138.4185  160.0603 C.3     1  UNL1        0.1299
      6 N         141.1337  139.8011  160.5507 N.ar    1  UNL1       -0.3005
      7 C         141.5036  140.9934  159.7192 C.ar    1  UNL1        0.1416
      8 N         141.0712  142.2255  160.4574 N.ar    1  UNL1       -0.2279
      9 C         140.4341  141.7947  161.7452 C.ar    1  UNL1        0.1125
     10 C         140.4727  140.2963  161.8028 C.ar    1  UNL1        0.1318
     11 C         142.1864  140.8031  158.3972 C.3     1  UNL1        0.1578
     12 C         139.8592  142.7028  162.7916 C.ar    1  UNL1        0.0205
     13 C         138.4250  143.1336  162.7049 C.ar    1  UNL1        0.0039
     14 C         137.8501  144.0417  163.7512 C.ar    1  UNL1        0.0297
     15 C         138.7093  144.5188  164.8843 C.ar    1  UNL1        0.1401
     16 F         138.1345  145.4269  165.9308 F       1  UNL1       -0.2042
     17 C         140.1435  144.0879  164.9711 C.ar    1  UNL1        0.0297
     18 C         140.7184  143.1799  163.9247 C.ar    1  UNL1        0.0039
     19 N         144.8172  137.5635  155.4455 N.3     1  UNL1       -0.3135
     20 C         143.4950  137.8478  156.0944 C.3     1  UNL1        0.1517
     21 H         144.8591  136.5807  155.1755 H       1  UNL1        0.1193
     22 H         145.5696  137.7678  156.1031 H       1  UNL1        0.1193
     23 N         139.9432  139.4429  162.9170 N.pl3   1  UNL1       -0.2980
     24 H         139.1391  138.8926  162.7761 H       1  UNL1        0.1536
     25 C         140.6389  139.4278  164.2458 C.ar    1  UNL1        0.0517
     26 C         139.9351  139.9414  165.4668 C.ar    1  UNL1        0.0157
     27 C         140.6309  139.9263  166.7957 C.ar    1  UNL1        0.0149
     28 C         142.0305  139.3975  166.9034 C.ar    1  UNL1        0.0851
     29 CL        142.7261  139.3824  168.2322 Cl      1  UNL1       -0.0799
     30 C         142.7343  138.8839  165.6825 C.ar    1  UNL1        0.1518
     31 F         144.1338  138.3551  165.7903 F       1  UNL1       -0.2032
     32 C         142.0385  138.8990  164.3537 C.ar    1  UNL1        0.0451
@<TRIPOS>BOND
     1    19    20    1
     2    20     1    1
     3     1     2    2
     4     1     3   am
     5     3     4    1
     6     4     5    1
     7     5     6    1
     8     6     7   ar
     9     7     8   ar
    10     8     9   ar
    11     9    12    1
    12    12    13   ar
    13    13    14   ar
    14    14    15   ar
    15    15    16    1
    16    15    17   ar
    17    17    18   ar
    18     9    10   ar
    19    10    23    1
    20    23    25    1
    21    25    26   ar
    22    26    27   ar
    23    27    28   ar
    24    28    29    1
    25    28    30   ar
    26    30    31    1
    27    30    32   ar
    28     7    11    1
    29    11     3    1
    30    10     6   ar
    31    32    25   ar
    32    18    12   ar
    33    19    21    1
    34    19    22    1
    35    23    24    1
