@<TRIPOS>MOLECULE
*****
 39 41 0 0 0
SMALL
GASTEIGER

@<TRIPOS>ATOM
      1 C         143.7408  140.2738  164.7010 C.3     1  UNL1        0.1194
      2 C         143.8368  138.7859  164.8653 C.3     1  UNL1        0.0802
      3 N         143.4452  138.1481  166.1652 N.3     1  UNL1       -0.2965
      4 C         142.9576  138.9980  167.3008 C.3     1  UNL1        0.0802
      5 C         142.8616  140.4859  167.1366 C.3     1  UNL1        0.1200
      6 C         143.2532  141.1238  165.8367 C.3     1  UNL1        0.1303
      7 O         143.1572  142.6117  165.6725 O.3     1  UNL1       -0.3834
      8 H         144.2647  137.6447  166.5049 H       1  UNL1        0.1233
      9 H         142.8270  143.0071  166.4944 H       1  UNL1        0.2104
     10 N         143.1435  140.9896  162.2760 N.am    1  UNL1       -0.3034
     11 C         144.1324  140.9117  163.4011 C.2     1  UNL1        0.2258
     12 O         145.5129  141.4716  163.2263 O.2     1  UNL1       -0.2750
     13 H         142.2374  140.6221  162.3907 H       1  UNL1        0.1495
     14 C         143.5351  141.6275  160.9761 C.3     1  UNL1        0.1011
     15 C         143.8138  140.7730  159.7753 C.3     1  UNL1        0.1615
     16 O         144.1380  139.3187  159.9486 O.3     1  UNL1       -0.3520
     17 C         141.7884  138.5791  159.1227 C.3     1  UNL1        0.0346
     18 C         143.0436  138.2945  159.8930 C.3     1  UNL1        0.1423
     19 C         143.6480  143.1200  160.8771 C.3     1  UNL1        0.0221
     20 C         143.0019  143.9914  161.9130 C.3     1  UNL1        0.0017
     21 C         143.8469  144.7014  162.9288 C.3     1  UNL1        0.0001
     22 C         141.5107  144.1528  161.9332 C.3     1  UNL1        0.0001
     23 C         142.3740  141.3359  168.2723 C.2     1  UNL1        0.2336
     24 O         143.2289  141.5221  169.4906 O.2     1  UNL1       -0.2744
     25 N         141.0314  141.9998  168.1895 N.am    1  UNL1       -0.2454
     26 C         140.1765  141.8137  166.9711 C.ar    1  UNL1        0.1404
     27 C         139.5268  140.4879  166.7062 C.ar    1  UNL1        0.0712
     28 C         138.6719  140.3017  165.4878 C.ar    1  UNL1        0.1388
     29 C         138.4667  141.4413  164.5343 C.ar    1  UNL1        0.0310
     30 C         139.1164  142.7671  164.7992 C.ar    1  UNL1        0.0990
     31 N         139.9713  142.9533  166.0176 N.ar    1  UNL1       -0.2289
     32 C         137.6118  141.2551  163.3159 C.3     1  UNL1        0.0310
     33 C         137.7554  142.1871  162.1494 C.3     1  UNL1        0.0052
     34 O         138.0223  138.9759  165.2229 O.3     1  UNL1       -0.4756
     35 C         138.8318  137.7154  165.2988 C.3     1  UNL1        0.2055
     36 C         140.1189  137.6037  164.5365 C.3     1  UNL1        0.0512
     37 C         140.5438  142.8499  169.3251 C.3     1  UNL1        0.0813
     38 C         139.7840  142.9884  170.6110 C.3     1  UNL1        0.0219
     39 C         140.4590  144.1836  170.0062 C.3     1  UNL1        0.0219
@<TRIPOS>BOND
     1    17    18    1
     2    18    16    1
     3    16    15    1
     4    14    15    1
     5    14    19    1
     6    19    20    1
     7    20    21    1
     8    20    22    1
     9    14    10    1
    10    10    11   am
    11    11    12    2
    12     1    11    1
    13     1     2    1
    14     2     3    1
    15     3     4    1
    16     4     5    1
    17     5    23    1
    18    23    24    2
    19    23    25   am
    20    25    26    1
    21    26    27   ar
    22    27    28   ar
    23    28    34    1
    24    34    35    1
    25    35    36    1
    26    28    29   ar
    27    29    32    1
    28    32    33    1
    29    29    30   ar
    30    30    31   ar
    31    25    37    1
    32    37    38    1
    33    38    39    1
    34     5     6    1
    35     6     7    1
    36     6     1    1
    37    31    26   ar
    38    39    37    1
    39    10    13    1
    40     3     8    1
    41     7     9    1
@<TRIPOS>MOLECULE
*****
 39 41 0 0 0
SMALL
GASTEIGER

@<TRIPOS>ATOM
      1 C         138.8188  139.7008  165.1927 C.3     1  UNL1        0.1194
      2 C         138.5940  138.4837  164.3454 C.3     1  UNL1        0.0802
      3 N         138.4180  138.6242  162.8624 N.3     1  UNL1       -0.2965
      4 C         138.4667  139.9820  162.2268 C.3     1  UNL1        0.0802
      5 C         138.6916  141.1991  163.0741 C.3     1  UNL1        0.1200
      6 C         138.8676  141.0585  164.5571 C.3     1  UNL1        0.1303
      7 O         139.0924  142.2758  165.4044 O.3     1  UNL1       -0.3834
      8 H         137.5073  138.2251  162.6349 H       1  UNL1        0.1233
      9 H         139.0961  143.0656  164.8412 H       1  UNL1        0.2104
     10 N         140.0834  140.3174  167.3769 N.am    1  UNL1       -0.3034
     11 C         138.9949  139.5602  166.6757 C.2     1  UNL1        0.2258
     12 O         138.0824  138.6624  167.4575 O.2     1  UNL1       -0.2750
     13 H         140.6823  140.9067  166.8638 H       1  UNL1        0.1495
     14 C         140.2594  140.1769  168.8599 C.3     1  UNL1        0.1011
     15 C         139.2440  140.7642  169.7947 C.3     1  UNL1        0.1615
     16 O         139.6873  141.6374  170.9309 O.3     1  UNL1       -0.3520
     17 C         140.4561  143.8181  169.7462 C.3     1  UNL1        0.0346
     18 C         139.6332  143.1302  170.7949 C.3     1  UNL1        0.1423
     19 C         141.4510  139.4489  169.4080 C.3     1  UNL1        0.0221
     20 C         142.6690  140.2155  169.8307 C.3     1  UNL1        0.0017
     21 C         143.4523  139.7760  171.0321 C.3     1  UNL1        0.0001
     22 C         143.1038  141.4216  169.0519 C.3     1  UNL1        0.0001
     23 C         138.7403  142.5570  162.4384 C.2     1  UNL1        0.2336
     24 O         137.4723  143.2212  161.9902 O.2     1  UNL1       -0.2744
     25 N         140.0571  143.2505  162.2510 N.am    1  UNL1       -0.2454
     26 C         141.3251  142.5861  162.6993 C.ar    1  UNL1        0.1404
     27 C         141.9173  141.4739  161.8856 C.ar    1  UNL1        0.0712
     28 C         143.1853  140.8096  162.3338 C.ar    1  UNL1        0.1388
     29 C         143.8610  141.2575  163.5958 C.ar    1  UNL1        0.0310
     30 C         143.2688  142.3698  164.4095 C.ar    1  UNL1        0.0990
     31 N         142.0009  143.0341  163.9613 N.ar    1  UNL1       -0.2289
     32 C         145.1290  140.5932  164.0441 C.3     1  UNL1        0.0310
     33 C         145.0766  139.2535  164.7166 C.3     1  UNL1        0.0052
     34 O         143.7775  139.6973  161.5200 O.3     1  UNL1       -0.4756
     35 C         143.1400  138.3396  161.5293 C.3     1  UNL1        0.2055
     36 C         143.2389  137.4563  160.3211 C.3     1  UNL1        0.0512
     37 C         140.1059  144.6082  161.6154 C.3     1  UNL1        0.0813
     38 C         139.8730  146.0880  161.6929 C.3     1  UNL1        0.0219
     39 C         140.4234  145.4802  160.4370 C.3     1  UNL1        0.0219
@<TRIPOS>BOND
     1    17    18    1
     2    18    16    1
     3    16    15    1
     4    14    15    1
     5    14    19    1
     6    19    20    1
     7    20    21    1
     8    20    22    1
     9    14    10    1
    10    10    11   am
    11    11    12    2
    12     1    11    1
    13     1     2    1
    14     2     3    1
    15     3     4    1
    16     4     5    1
    17     5    23    1
    18    23    24    2
    19    23    25   am
    20    25    26    1
    21    26    27   ar
    22    27    28   ar
    23    28    34    1
    24    34    35    1
    25    35    36    1
    26    28    29   ar
    27    29    32    1
    28    32    33    1
    29    29    30   ar
    30    30    31   ar
    31    25    37    1
    32    37    38    1
    33    38    39    1
    34     5     6    1
    35     6     7    1
    36     6     1    1
    37    31    26   ar
    38    39    37    1
    39    10    13    1
    40     3     8    1
    41     7     9    1
@<TRIPOS>MOLECULE
*****
 39 41 0 0 0
SMALL
GASTEIGER

@<TRIPOS>ATOM
      1 C         142.2440  138.9354  162.6609 C.3     1  UNL1        0.1194
      2 C         143.5348  139.2709  161.9744 C.3     1  UNL1        0.0802
      3 N         144.7908  139.4356  162.7777 N.3     1  UNL1       -0.2965
      4 C         144.7560  139.2649  164.2676 C.3     1  UNL1        0.0802
      5 C         143.4653  138.9294  164.9541 C.3     1  UNL1        0.1200
      6 C         142.2093  138.7647  164.1508 C.3     1  UNL1        0.1303
      7 O         140.9185  138.4292  164.8373 O.3     1  UNL1       -0.3834
      8 H         145.1340  140.3791  162.5974 H       1  UNL1        0.1233
      9 H         141.0701  138.3548  165.7925 H       1  UNL1        0.2104
     10 N         140.5498  139.8562  160.9198 N.am    1  UNL1       -0.3034
     11 C         140.9880  138.7707  161.8576 C.2     1  UNL1        0.2258
     12 O         140.1703  137.5205  161.9922 O.2     1  UNL1       -0.2750
     13 H         141.0865  140.6768  160.8315 H       1  UNL1        0.1495
     14 C         139.2937  139.6915  160.1165 C.3     1  UNL1        0.1011
     15 C         139.3531  139.0778  158.7491 C.3     1  UNL1        0.1615
     16 O         140.5618  139.2858  157.8855 O.3     1  UNL1       -0.3520
     17 C         142.6295  137.8874  158.6061 C.3     1  UNL1        0.0346
     18 C         141.5125  138.1517  157.6404 C.3     1  UNL1        0.1423
     19 C         137.9783  140.1404  160.6807 C.3     1  UNL1        0.0221
     20 C         137.9436  141.1412  161.7974 C.3     1  UNL1        0.0017
     21 C         137.7201  140.6834  163.2082 C.3     1  UNL1        0.0001
     22 C         138.1325  142.6000  161.5034 C.3     1  UNL1        0.0001
     23 C         143.4305  138.7587  166.4440 C.2     1  UNL1        0.2336
     24 O         144.1572  137.6137  167.0848 O.2     1  UNL1       -0.2744
     25 N         142.6689  139.7330  167.2929 N.am    1  UNL1       -0.2454
     26 C         141.9421  140.8780  166.6520 C.ar    1  UNL1        0.1404
     27 C         142.7104  141.9400  165.9227 C.ar    1  UNL1        0.0712
     28 C         141.9837  143.0850  165.2818 C.ar    1  UNL1        0.1388
     29 C         140.4887  143.1680  165.3701 C.ar    1  UNL1        0.0310
     30 C         139.7203  142.1060  166.0994 C.ar    1  UNL1        0.0990
     31 N         140.4470  140.9610  166.7404 N.ar    1  UNL1       -0.2289
     32 C         139.7619  144.3131  164.7292 C.3     1  UNL1        0.0310
     33 C         138.2926  144.4970  164.9687 C.3     1  UNL1        0.0052
     34 O         142.7521  144.1469  164.5525 O.3     1  UNL1       -0.4756
     35 C         143.1717  143.9255  163.1295 C.3     1  UNL1        0.2055
     36 C         142.4733  142.8944  162.2934 C.3     1  UNL1        0.0512
     37 C         142.6341  139.5623  168.7827 C.3     1  UNL1        0.0813
     38 C         142.5497  140.1578  170.1569 C.3     1  UNL1        0.0219
     39 C         142.6581  138.6711  169.9891 C.3     1  UNL1        0.0219
@<TRIPOS>BOND
     1    17    18    1
     2    18    16    1
     3    16    15    1
     4    14    15    1
     5    14    19    1
     6    19    20    1
     7    20    21    1
     8    20    22    1
     9    14    10    1
    10    10    11   am
    11    11    12    2
    12     1    11    1
    13     1     2    1
    14     2     3    1
    15     3     4    1
    16     4     5    1
    17     5    23    1
    18    23    24    2
    19    23    25   am
    20    25    26    1
    21    26    27   ar
    22    27    28   ar
    23    28    34    1
    24    34    35    1
    25    35    36    1
    26    28    29   ar
    27    29    32    1
    28    32    33    1
    29    29    30   ar
    30    30    31   ar
    31    25    37    1
    32    37    38    1
    33    38    39    1
    34     5     6    1
    35     6     7    1
    36     6     1    1
    37    31    26   ar
    38    39    37    1
    39    10    13    1
    40     3     8    1
    41     7     9    1
@<TRIPOS>MOLECULE
*****
 39 41 0 0 0
SMALL
GASTEIGER

@<TRIPOS>ATOM
      1 C         138.8415  140.5191  163.1005 C.3     1  UNL1        0.1194
      2 C         138.8925  139.1990  162.3902 C.3     1  UNL1        0.0802
      3 N         138.9923  137.9266  163.1783 N.3     1  UNL1       -0.2965
      4 C         139.0412  137.9744  164.6767 C.3     1  UNL1        0.0802
      5 C         138.9902  139.2945  165.3870 C.3     1  UNL1        0.1200
      6 C         138.8904  140.5669  164.5989 C.3     1  UNL1        0.1303
      7 O         138.8394  141.8871  165.3093 O.3     1  UNL1       -0.3834
      8 H         139.8433  137.4558  162.8708 H       1  UNL1        0.1233
      9 H         138.8807  141.7406  166.2673 H       1  UNL1        0.2104
     10 N         139.9801  142.4258  161.7522 N.am    1  UNL1       -0.3034
     11 C         138.7417  141.7915  162.3124 C.2     1  UNL1        0.2258
     12 O         137.4034  142.4295  162.0845 O.2     1  UNL1       -0.2750
     13 H         140.8584  142.0071  161.9018 H       1  UNL1        0.1495
     14 C         139.8802  143.6982  160.9641 C.3     1  UNL1        0.1011
     15 C         139.7355  143.6468  159.4720 C.3     1  UNL1        0.1615
     16 O         139.8432  142.3349  158.7528 O.3     1  UNL1       -0.3520
     17 C         138.0350  140.4802  158.9541 C.3     1  UNL1        0.0346
     18 C         138.6084  141.6624  158.2304 C.3     1  UNL1        0.1423
     19 C         139.9251  145.0220  161.6682 C.3     1  UNL1        0.0221
     20 C         140.3364  145.0915  163.1090 C.3     1  UNL1        0.0017
     21 C         141.7829  145.2593  163.4688 C.3     1  UNL1        0.0001
     22 C         139.3011  144.9933  164.1900 C.3     1  UNL1        0.0001
     23 C         139.0390  139.3423  166.8855 C.2     1  UNL1        0.2336
     24 O         137.9015  138.7882  167.6911 O.2     1  UNL1       -0.2744
     25 N         140.2255  139.9443  167.5784 N.am    1  UNL1       -0.2454
     26 C         141.3630  140.4984  166.7728 C.ar    1  UNL1        0.1404
     27 C         142.2499  139.5738  165.9927 C.ar    1  UNL1        0.0712
     28 C         143.3874  140.1279  165.1871 C.ar    1  UNL1        0.1388
     29 C         143.6380  141.6066  165.1616 C.ar    1  UNL1        0.0310
     30 C         142.7511  142.5312  165.9416 C.ar    1  UNL1        0.0990
     31 N         141.6136  141.9771  166.7472 N.ar    1  UNL1       -0.2289
     32 C         144.7756  142.1607  164.3559 C.3     1  UNL1        0.0310
     33 C         144.5419  142.6251  162.9489 C.3     1  UNL1        0.0052
     34 O         144.2743  139.2033  164.4070 O.3     1  UNL1       -0.4756
     35 C         143.8721  138.7615  163.0312 C.3     1  UNL1        0.2055
     36 C         142.6811  139.3815  162.3626 C.3     1  UNL1        0.0512
     37 C         140.2744  139.9921  169.0768 C.3     1  UNL1        0.0813
     38 C         141.0019  139.7289  170.3618 C.3     1  UNL1        0.0219
     39 C         139.6315  140.3382  170.3871 C.3     1  UNL1        0.0219
@<TRIPOS>BOND
     1    17    18    1
     2    18    16    1
     3    16    15    1
     4    14    15    1
     5    14    19    1
     6    19    20    1
     7    20    21    1
     8    20    22    1
     9    14    10    1
    10    10    11   am
    11    11    12    2
    12     1    11    1
    13     1     2    1
    14     2     3    1
    15     3     4    1
    16     4     5    1
    17     5    23    1
    18    23    24    2
    19    23    25   am
    20    25    26    1
    21    26    27   ar
    22    27    28   ar
    23    28    34    1
    24    34    35    1
    25    35    36    1
    26    28    29   ar
    27    29    32    1
    28    32    33    1
    29    29    30   ar
    30    30    31   ar
    31    25    37    1
    32    37    38    1
    33    38    39    1
    34     5     6    1
    35     6     7    1
    36     6     1    1
    37    31    26   ar
    38    39    37    1
    39    10    13    1
    40     3     8    1
    41     7     9    1
@<TRIPOS>MOLECULE
*****
 39 41 0 0 0
SMALL
GASTEIGER

@<TRIPOS>ATOM
      1 C         140.7206  138.3716  162.5446 C.3     1  UNL1        0.1194
      2 C         139.5998  137.5974  163.1724 C.3     1  UNL1        0.0802
      3 N         138.2345  137.6171  162.5513 N.3     1  UNL1       -0.2965
      4 C         137.9902  138.4110  161.3024 C.3     1  UNL1        0.0802
      5 C         139.1111  139.1852  160.6745 C.3     1  UNL1        0.1200
      6 C         140.4763  139.1655  161.2956 C.3     1  UNL1        0.1303
      7 O         141.5972  139.9398  160.6677 O.3     1  UNL1       -0.3834
      8 H         137.5942  137.9771  163.2590 H       1  UNL1        0.1233
      9 H         141.2722  140.3931  159.8741 H       1  UNL1        0.2104
     10 N         142.2671  138.7793  164.5920 N.am    1  UNL1       -0.3034
     11 C         142.0858  138.3519  163.1657 C.2     1  UNL1        0.2258
     12 O         143.2698  137.9048  162.3606 O.2     1  UNL1       -0.2750
     13 H         141.4901  139.0728  165.1205 H       1  UNL1        0.1495
     14 C         143.6323  138.7596  165.2132 C.3     1  UNL1        0.1011
     15 C         143.8735  137.9764  166.4694 C.3     1  UNL1        0.1615
     16 O         143.4769  138.5488  167.7980 O.3     1  UNL1       -0.3520
     17 C         142.7276  140.9482  168.4547 C.3     1  UNL1        0.0346
     18 C         142.4117  139.6022  167.8729 C.3     1  UNL1        0.1423
     19 C         144.7564  139.5233  164.5780 C.3     1  UNL1        0.0221
     20 C         144.5404  140.9364  164.1235 C.3     1  UNL1        0.0017
     21 C         144.8449  141.3234  162.7067 C.3     1  UNL1        0.0001
     22 C         144.0199  141.9625  165.0859 C.3     1  UNL1        0.0001
     23 C         138.8667  139.9792  159.4255 C.2     1  UNL1        0.2336
     24 O         138.7953  139.2852  158.0976 O.2     1  UNL1       -0.2744
     25 N         138.6939  141.4671  159.5044 N.am    1  UNL1       -0.2454
     26 C         138.7653  142.1610  160.8324 C.ar    1  UNL1        0.1404
     27 C         139.9066  143.0863  161.1346 C.ar    1  UNL1        0.0712
     28 C         139.9781  143.7803  162.4625 C.ar    1  UNL1        0.1388
     29 C         138.9083  143.5489  163.4881 C.ar    1  UNL1        0.0310
     30 C         137.7670  142.6236  163.1859 C.ar    1  UNL1        0.0990
     31 N         137.6955  141.9297  161.8580 N.ar    1  UNL1       -0.2289
     32 C         138.9798  144.2429  164.8161 C.3     1  UNL1        0.0310
     33 C         137.7308  144.7797  165.4499 C.3     1  UNL1        0.0052
     34 O         141.1194  144.7055  162.7647 O.3     1  UNL1       -0.4756
     35 C         142.5200  144.3137  162.3977 C.3     1  UNL1        0.2055
     36 C         143.6833  144.9182  163.1266 C.3     1  UNL1        0.0512
     37 C         138.4496  142.2610  158.2555 C.3     1  UNL1        0.0813
     38 C         137.5683  142.6200  157.0959 C.3     1  UNL1        0.0219
     39 C         138.9076  143.2772  157.2517 C.3     1  UNL1        0.0219
@<TRIPOS>BOND
     1    17    18    1
     2    18    16    1
     3    16    15    1
     4    14    15    1
     5    14    19    1
     6    19    20    1
     7    20    21    1
     8    20    22    1
     9    14    10    1
    10    10    11   am
    11    11    12    2
    12     1    11    1
    13     1     2    1
    14     2     3    1
    15     3     4    1
    16     4     5    1
    17     5    23    1
    18    23    24    2
    19    23    25   am
    20    25    26    1
    21    26    27   ar
    22    27    28   ar
    23    28    34    1
    24    34    35    1
    25    35    36    1
    26    28    29   ar
    27    29    32    1
    28    32    33    1
    29    29    30   ar
    30    30    31   ar
    31    25    37    1
    32    37    38    1
    33    38    39    1
    34     5     6    1
    35     6     7    1
    36     6     1    1
    37    31    26   ar
    38    39    37    1
    39    10    13    1
    40     3     8    1
    41     7     9    1
@<TRIPOS>MOLECULE
*****
 39 41 0 0 0
SMALL
GASTEIGER

@<TRIPOS>ATOM
      1 C         141.1066  139.2020  163.4736 C.3     1  UNL1        0.1194
      2 C         140.3042  138.1058  164.1094 C.3     1  UNL1        0.0802
      3 N         139.1358  137.5117  163.3800 N.3     1  UNL1       -0.2965
      4 C         138.7699  138.0138  162.0148 C.3     1  UNL1        0.0802
      5 C         139.5723  139.1100  161.3789 C.3     1  UNL1        0.1200
      6 C         140.7407  139.7041  162.1083 C.3     1  UNL1        0.1303
      7 O         141.5431  140.8004  161.4724 O.3     1  UNL1       -0.3834
      8 H         138.3176  137.6490  163.9734 H       1  UNL1        0.1233
      9 H         141.1760  141.0043  160.5980 H       1  UNL1        0.2104
     10 N         142.4036  141.2855  164.3260 N.am    1  UNL1       -0.3034
     11 C         142.2749  139.7962  164.2029 C.2     1  UNL1        0.2258
     12 O         143.3146  138.9009  164.8092 O.2     1  UNL1       -0.2750
     13 H         141.7213  141.8731  163.9281 H       1  UNL1        0.1495
     14 C         143.5720  141.8796  165.0554 C.3     1  UNL1        0.1011
     15 C         144.8787  142.0751  164.3454 C.3     1  UNL1        0.1615
     16 O         145.1572  141.3362  163.0701 O.3     1  UNL1       -0.3520
     17 C         144.1571  143.2838  161.6714 C.3     1  UNL1        0.0346
     18 C         144.9597  142.0190  161.7492 C.3     1  UNL1        0.1423
     19 C         143.4335  142.2783  166.4949 C.3     1  UNL1        0.0221
     20 C         142.3537  141.6712  167.3407 C.3     1  UNL1        0.0017
     21 C         142.5578  140.3217  167.9628 C.3     1  UNL1        0.0001
     22 C         141.0696  142.4137  167.5643 C.3     1  UNL1        0.0001
     23 C         139.2064  139.6122  160.0136 C.2     1  UNL1        0.2336
     24 O         139.4428  138.7500  158.8092 O.2     1  UNL1       -0.2744
     25 N         138.6041  140.9765  159.8528 N.am    1  UNL1       -0.2454
     26 C         138.3678  141.8387  161.0574 C.ar    1  UNL1        0.1404
     27 C         139.0359  143.1774  161.1643 C.ar    1  UNL1        0.0712
     28 C         138.7996  144.0396  162.3687 C.ar    1  UNL1        0.1388
     29 C         137.8951  143.5630  163.4663 C.ar    1  UNL1        0.0310
     30 C         137.2270  142.2243  163.3595 C.ar    1  UNL1        0.0990
     31 N         137.4633  141.3622  162.1550 N.ar    1  UNL1       -0.2289
     32 C         137.6588  144.4252  164.6709 C.3     1  UNL1        0.0310
     33 C         138.7537  144.6254  165.6764 C.3     1  UNL1        0.0052
     34 O         139.4678  145.3783  162.4756 O.3     1  UNL1       -0.4756
     35 C         140.9645  145.4685  162.5145 C.3     1  UNL1        0.2055
     36 C         141.7066  145.0883  163.7614 C.3     1  UNL1        0.0512
     37 C         138.2382  141.4787  158.4876 C.3     1  UNL1        0.0813
     38 C         137.6082  141.2511  157.1455 C.3     1  UNL1        0.0219
     39 C         138.2345  142.5761  157.4650 C.3     1  UNL1        0.0219
@<TRIPOS>BOND
     1    17    18    1
     2    18    16    1
     3    16    15    1
     4    14    15    1
     5    14    19    1
     6    19    20    1
     7    20    21    1
     8    20    22    1
     9    14    10    1
    10    10    11   am
    11    11    12    2
    12     1    11    1
    13     1     2    1
    14     2     3    1
    15     3     4    1
    16     4     5    1
    17     5    23    1
    18    23    24    2
    19    23    25   am
    20    25    26    1
    21    26    27   ar
    22    27    28   ar
    23    28    34    1
    24    34    35    1
    25    35    36    1
    26    28    29   ar
    27    29    32    1
    28    32    33    1
    29    29    30   ar
    30    30    31   ar
    31    25    37    1
    32    37    38    1
    33    38    39    1
    34     5     6    1
    35     6     7    1
    36     6     1    1
    37    31    26   ar
    38    39    37    1
    39    10    13    1
    40     3     8    1
    41     7     9    1
@<TRIPOS>MOLECULE
*****
 39 41 0 0 0
SMALL
GASTEIGER

@<TRIPOS>ATOM
      1 C         141.2372  139.3786  164.1964 C.3     1  UNL1        0.1194
      2 C         140.4592  138.2832  164.8632 C.3     1  UNL1        0.0802
      3 N         139.4019  137.5423  164.0995 N.3     1  UNL1       -0.2965
      4 C         139.1226  137.8968  162.6691 C.3     1  UNL1        0.0802
      5 C         139.9006  138.9922  162.0023 C.3     1  UNL1        0.1200
      6 C         140.9580  139.7331  162.7659 C.3     1  UNL1        0.1303
      7 O         141.7360  140.8286  162.0991 O.3     1  UNL1       -0.3834
      8 H         138.5277  137.6675  164.6100 H       1  UNL1        0.1233
      9 H         141.4332  140.9287  161.1830 H       1  UNL1        0.2104
     10 N         142.2219  141.6124  165.0855 N.am    1  UNL1       -0.3034
     11 C         142.2946  140.1194  164.9600 C.2     1  UNL1        0.2258
     12 O         143.4246  139.3674  165.5982 O.2     1  UNL1       -0.2750
     13 H         141.4802  142.1060  164.6666 H       1  UNL1        0.1495
     14 C         143.2792  142.3532  165.8492 C.3     1  UNL1        0.1011
     15 C         143.2715  142.3367  167.3490 C.3     1  UNL1        0.1615
     16 O         141.9709  142.2514  168.0915 O.3     1  UNL1       -0.3520
     17 C         140.2554  140.3005  168.0586 C.3     1  UNL1        0.0346
     18 C         141.4948  140.9313  168.6210 C.3     1  UNL1        0.1423
     19 C         144.3443  143.1106  165.1129 C.3     1  UNL1        0.0221
     20 C         144.8671  142.5908  163.8066 C.3     1  UNL1        0.0017
     21 C         145.7508  141.3790  163.7813 C.3     1  UNL1        0.0001
     22 C         144.5063  143.2829  162.5256 C.3     1  UNL1        0.0001
     23 C         139.6214  139.3468  160.5717 C.2     1  UNL1        0.2336
     24 O         139.9949  138.3931  159.4760 O.2     1  UNL1       -0.2744
     25 N         138.9686  140.6552  160.2371 N.am    1  UNL1       -0.2454
     26 C         138.5950  141.6090  161.3329 C.ar    1  UNL1        0.1404
     27 C         139.1072  143.0186  161.3072 C.ar    1  UNL1        0.0712
     28 C         138.7337  143.9724  162.4030 C.ar    1  UNL1        0.1388
     29 C         137.8481  143.5165  163.5245 C.ar    1  UNL1        0.0310
     30 C         137.3359  142.1069  163.5502 C.ar    1  UNL1        0.0990
     31 N         137.7094  141.1531  162.4544 N.ar    1  UNL1       -0.2289
     32 C         137.4745  144.4703  164.6204 C.3     1  UNL1        0.0310
     33 C         138.4900  144.8615  165.6526 C.3     1  UNL1        0.0052
     34 O         139.2458  145.3820  162.3773 O.3     1  UNL1       -0.4756
     35 C         140.7182  145.6471  162.4856 C.3     1  UNL1        0.2055
     36 C         141.4950  145.1019  163.6472 C.3     1  UNL1        0.0512
     37 C         138.6893  141.0098  158.8066 C.3     1  UNL1        0.0813
     38 C         137.7687  141.0026  157.6224 C.3     1  UNL1        0.0219
     39 C         139.1262  141.6313  157.5132 C.3     1  UNL1        0.0219
@<TRIPOS>BOND
     1    17    18    1
     2    18    16    1
     3    16    15    1
     4    14    15    1
     5    14    19    1
     6    19    20    1
     7    20    21    1
     8    20    22    1
     9    14    10    1
    10    10    11   am
    11    11    12    2
    12     1    11    1
    13     1     2    1
    14     2     3    1
    15     3     4    1
    16     4     5    1
    17     5    23    1
    18    23    24    2
    19    23    25   am
    20    25    26    1
    21    26    27   ar
    22    27    28   ar
    23    28    34    1
    24    34    35    1
    25    35    36    1
    26    28    29   ar
    27    29    32    1
    28    32    33    1
    29    29    30   ar
    30    30    31   ar
    31    25    37    1
    32    37    38    1
    33    38    39    1
    34     5     6    1
    35     6     7    1
    36     6     1    1
    37    31    26   ar
    38    39    37    1
    39    10    13    1
    40     3     8    1
    41     7     9    1
@<TRIPOS>MOLECULE
*****
 39 41 0 0 0
SMALL
GASTEIGER

@<TRIPOS>ATOM
      1 C         142.3742  138.8455  162.5638 C.3     1  UNL1        0.1194
      2 C         143.6580  139.2477  161.9004 C.3     1  UNL1        0.0802
      3 N         144.8769  139.5230  162.7302 N.3     1  UNL1       -0.2965
      4 C         144.8120  139.3961  164.2233 C.3     1  UNL1        0.0802
      5 C         143.5282  138.9938  164.8867 C.3     1  UNL1        0.1200
      6 C         142.3093  138.7186  164.0570 C.3     1  UNL1        0.1303
      7 O         141.0255  138.3163  164.7204 O.3     1  UNL1       -0.3834
      8 H         145.1602  140.4818  162.5282 H       1  UNL1        0.1233
      9 H         141.1551  138.2819  165.6811 H       1  UNL1        0.2104
     10 N         140.8001  139.4823  160.5975 N.am    1  UNL1       -0.3034
     11 C         141.1553  138.5702  161.7340 C.2     1  UNL1        0.2258
     12 O         140.2917  137.3828  162.0408 O.2     1  UNL1       -0.2750
     13 H         141.3669  140.2617  160.3961 H       1  UNL1        0.1495
     14 C         139.5812  139.2071  159.7677 C.3     1  UNL1        0.1011
     15 C         138.2463  139.7404  160.1959 C.3     1  UNL1        0.1615
     16 O         137.6341  139.2816  161.4861 O.3     1  UNL1       -0.3520
     17 C         137.3946  141.3585  163.0286 C.3     1  UNL1        0.0346
     18 C         137.9591  139.9939  162.7655 C.3     1  UNL1        0.1423
     19 C         139.6973  138.3983  158.5096 C.3     1  UNL1        0.0221
     20 C         140.8889  138.5702  157.6149 C.3     1  UNL1        0.0017
     21 C         140.9163  139.6809  156.6073 C.3     1  UNL1        0.0001
     22 C         142.0532  137.6311  157.7278 C.3     1  UNL1        0.0001
     23 C         143.4633  138.8669  166.3800 C.2     1  UNL1        0.2336
     24 O         144.1591  137.7294  167.0669 O.2     1  UNL1       -0.2744
     25 N         142.7026  139.8775  167.1862 N.am    1  UNL1       -0.2454
     26 C         142.0068  141.0150  166.4992 C.ar    1  UNL1        0.1404
     27 C         142.8093  142.0809  165.8137 C.ar    1  UNL1        0.0712
     28 C         142.1135  143.2184  165.1267 C.ar    1  UNL1        0.1388
     29 C         140.6153  143.2900  165.1252 C.ar    1  UNL1        0.0310
     30 C         139.8128  142.2241  165.8106 C.ar    1  UNL1        0.0990
     31 N         140.5085  141.0866  166.4976 N.ar    1  UNL1       -0.2289
     32 C         139.9194  144.4275  164.4381 C.3     1  UNL1        0.0310
     33 C         139.7386  144.4066  162.9493 C.3     1  UNL1        0.0052
     34 O         142.9160  144.2843  164.4413 O.3     1  UNL1       -0.4756
     35 C         144.0255  143.9033  163.5066 C.3     1  UNL1        0.2055
     36 C         143.7158  143.1760  162.2318 C.3     1  UNL1        0.0512
     37 C         142.6376  139.7506  168.6794 C.3     1  UNL1        0.0813
     38 C         142.4231  138.9108  169.9036 C.3     1  UNL1        0.0219
     39 C         142.7397  140.3705  170.0415 C.3     1  UNL1        0.0219
@<TRIPOS>BOND
     1    17    18    1
     2    18    16    1
     3    16    15    1
     4    14    15    1
     5    14    19    1
     6    19    20    1
     7    20    21    1
     8    20    22    1
     9    14    10    1
    10    10    11   am
    11    11    12    2
    12     1    11    1
    13     1     2    1
    14     2     3    1
    15     3     4    1
    16     4     5    1
    17     5    23    1
    18    23    24    2
    19    23    25   am
    20    25    26    1
    21    26    27   ar
    22    27    28   ar
    23    28    34    1
    24    34    35    1
    25    35    36    1
    26    28    29   ar
    27    29    32    1
    28    32    33    1
    29    29    30   ar
    30    30    31   ar
    31    25    37    1
    32    37    38    1
    33    38    39    1
    34     5     6    1
    35     6     7    1
    36     6     1    1
    37    31    26   ar
    38    39    37    1
    39    10    13    1
    40     3     8    1
    41     7     9    1
@<TRIPOS>MOLECULE
*****
 39 41 0 0 0
SMALL
GASTEIGER

@<TRIPOS>ATOM
      1 C         138.6324  140.6975  164.7963 C.3     1  UNL1        0.1194
      2 C         138.0173  139.3579  165.0736 C.3     1  UNL1        0.0802
      3 N         138.2046  138.7094  166.4132 N.3     1  UNL1       -0.2965
      4 C         139.0071  139.4005  167.4754 C.3     1  UNL1        0.0802
      5 C         139.6222  140.7402  167.1980 C.3     1  UNL1        0.1200
      6 C         139.4348  141.3886  165.8585 C.3     1  UNL1        0.1303
      7 O         140.0500  142.7284  165.5812 O.3     1  UNL1       -0.3834
      8 H         138.6532  137.8090  166.2443 H       1  UNL1        0.1233
      9 H         140.5310  143.0321  166.3668 H       1  UNL1        0.2104
     10 N         139.6393  141.6969  162.6198 N.am    1  UNL1       -0.3034
     11 C         138.4450  141.3460  163.4567 C.2     1  UNL1        0.2258
     12 O         137.0634  141.6435  162.9542 O.2     1  UNL1       -0.2750
     13 H         140.5461  141.5016  162.9496 H       1  UNL1        0.1495
     14 C         139.4519  142.3454  161.2802 C.3     1  UNL1        0.1011
     15 C         139.1330  141.5061  160.0786 C.3     1  UNL1        0.1615
     16 O         138.3999  140.2079  160.2437 O.3     1  UNL1       -0.3520
     17 C         138.7342  138.0365  161.6305 C.3     1  UNL1        0.0346
     18 C         139.1625  138.9454  160.5168 C.3     1  UNL1        0.1423
     19 C         139.5834  143.8333  161.1423 C.3     1  UNL1        0.0221
     20 C         139.4572  144.7126  162.3509 C.3     1  UNL1        0.0017
     21 C         140.6600  145.4343  162.8823 C.3     1  UNL1        0.0001
     22 C         138.1280  144.8702  163.0282 C.3     1  UNL1        0.0001
     23 C         140.4247  141.4314  168.2602 C.2     1  UNL1        0.2336
     24 O         139.7357  142.0284  169.4514 O.2     1  UNL1       -0.2744
     25 N         141.9162  141.5255  168.1313 N.am    1  UNL1       -0.2454
     26 C         142.6051  140.9284  166.9401 C.ar    1  UNL1        0.1404
     27 C         143.3537  141.8113  165.9860 C.ar    1  UNL1        0.0712
     28 C         144.0426  141.2143  164.7949 C.ar    1  UNL1        0.1388
     29 C         143.9830  139.7344  164.5578 C.ar    1  UNL1        0.0310
     30 C         143.2345  138.8515  165.5118 C.ar    1  UNL1        0.0990
     31 N         142.5455  139.4485  166.7029 N.ar    1  UNL1       -0.2289
     32 C         144.6720  139.1373  163.3665 C.3     1  UNL1        0.0310
     33 C         143.8716  138.7189  162.1689 C.3     1  UNL1        0.0052
     34 O         144.7912  142.0972  163.8408 O.3     1  UNL1       -0.4756
     35 C         144.0429  142.9059  162.8230 C.3     1  UNL1        0.2055
     36 C         144.1067  144.4041  162.8612 C.3     1  UNL1        0.0512
     37 C         142.7187  142.2167  169.1934 C.3     1  UNL1        0.0813
     38 C         142.7925  143.1541  170.3621 C.3     1  UNL1        0.0219
     39 C         144.0348  142.4766  169.8644 C.3     1  UNL1        0.0219
@<TRIPOS>BOND
     1    17    18    1
     2    18    16    1
     3    16    15    1
     4    14    15    1
     5    14    19    1
     6    19    20    1
     7    20    21    1
     8    20    22    1
     9    14    10    1
    10    10    11   am
    11    11    12    2
    12     1    11    1
    13     1     2    1
    14     2     3    1
    15     3     4    1
    16     4     5    1
    17     5    23    1
    18    23    24    2
    19    23    25   am
    20    25    26    1
    21    26    27   ar
    22    27    28   ar
    23    28    34    1
    24    34    35    1
    25    35    36    1
    26    28    29   ar
    27    29    32    1
    28    32    33    1
    29    29    30   ar
    30    30    31   ar
    31    25    37    1
    32    37    38    1
    33    38    39    1
    34     5     6    1
    35     6     7    1
    36     6     1    1
    37    31    26   ar
    38    39    37    1
    39    10    13    1
    40     3     8    1
    41     7     9    1
