@<TRIPOS>MOLECULE
*****
 28 32 0 0 0
SMALL
GASTEIGER

@<TRIPOS>ATOM
      1 C         138.0255  140.0916  163.4279 C.ar    1  UNL1        0.1391
      2 C         138.3317  138.7728  162.7819 C.ar    1  UNL1        0.0369
      3 C         139.1990  137.7744  163.4897 C.ar    1  UNL1        0.0032
      4 C         139.7600  138.0947  164.8434 C.ar    1  UNL1        0.0017
      5 C         139.4539  139.4134  165.4894 C.ar    1  UNL1        0.0222
      6 C         138.5866  140.4119  164.7815 C.ar    1  UNL1        0.0385
      7 C         140.0150  139.7337  166.8430 C.ar    1  UNL1        0.1010
      8 N         139.2611  139.7041  168.1395 N.ar    1  UNL1       -0.2205
      9 C         140.2087  140.0919  169.2358 C.ar    1  UNL1        0.1795
     10 S         140.3283  140.3133  170.7145 S.2     1  UNL1       -0.0480
     11 C         141.7419  140.7194  171.0094 C.ar    1  UNL1        0.0573
     12 C         142.4958  140.7490  169.7130 C.ar    1  UNL1        0.0890
     13 N         141.5482  140.3612  168.6168 N.ar    1  UNL1       -0.2818
     14 C         141.4286  140.1398  167.1381 C.ar    1  UNL1        0.1011
     15 C         142.5292  140.2968  166.1311 C.ar    1  UNL1        0.1022
     16 C         142.9080  141.6631  165.6410 C.ar    1  UNL1        0.0414
     17 C         144.0086  141.8201  164.6341 C.ar    1  UNL1        0.1023
     18 N         144.7304  140.6110  164.1172 N.ar    1  UNL1       -0.2224
     19 C         144.3516  139.2449  164.6073 C.ar    1  UNL1        0.1989
     20 N         143.2510  139.0878  165.6142 N.ar    1  UNL1       -0.2224
     21 O         137.1582  141.0901  162.7200 O.3     1  UNL1       -0.4706
     22 C         137.7801  142.2686  162.0314 C.3     1  UNL1        0.2320
     23 C         140.7890  144.8138  164.2035 C.ar    1  UNL1       -0.0000
     24 C         139.3377  144.8861  164.5755 C.ar    1  UNL1       -0.0002
     25 C         138.3346  144.0377  163.8514 C.ar    1  UNL1       -0.0007
     26 C         138.7830  143.1170  162.7554 C.ar    1  UNL1        0.0212
     27 C         140.2344  143.0447  162.3834 C.ar    1  UNL1       -0.0007
     28 C         141.2374  143.8931  163.1074 C.ar    1  UNL1       -0.0002
@<TRIPOS>BOND
     1    23    24   ar
     2    24    25   ar
     3    25    26   ar
     4    26    22    1
     5    22    21    1
     6    21     1    1
     7     1     2   ar
     8     2     3   ar
     9     3     4   ar
    10     4     5   ar
    11     5     7    1
    12     7     8   ar
    13     8     9   ar
    14     9    10   ar
    15    10    11   ar
    16    11    12   ar
    17    12    13   ar
    18    13    14   ar
    19    14    15    1
    20    15    16   ar
    21    16    17   ar
    22    17    18   ar
    23    18    19   ar
    24    19    20   ar
    25     5     6   ar
    26    26    27   ar
    27    27    28   ar
    28    28    23   ar
    29     6     1   ar
    30    14     7   ar
    31    20    15   ar
    32    13     9   ar
@<TRIPOS>MOLECULE
*****
 28 32 0 0 0
SMALL
GASTEIGER

@<TRIPOS>ATOM
      1 C         142.1602  138.0211  163.1206 C.ar    1  UNL1        0.1391
      2 C         143.4114  138.2890  162.3378 C.ar    1  UNL1        0.0369
      3 C         144.4989  139.1363  162.9289 C.ar    1  UNL1        0.0032
      4 C         144.3352  139.7156  164.3029 C.ar    1  UNL1        0.0017
      5 C         143.0840  139.4476  165.0856 C.ar    1  UNL1        0.0222
      6 C         141.9965  138.6003  164.4944 C.ar    1  UNL1        0.0385
      7 C         142.9203  140.0269  166.4595 C.ar    1  UNL1        0.1010
      8 N         142.9621  139.2625  167.7494 N.ar    1  UNL1       -0.2205
      9 C         142.7537  140.2355  168.8718 C.ar    1  UNL1        0.1795
     10 S         142.6508  140.3643  170.3627 S.2     1  UNL1       -0.0480
     11 C         142.4165  141.8098  170.6879 C.ar    1  UNL1        0.0573
     12 C         142.3747  142.5742  169.3980 C.ar    1  UNL1        0.0890
     13 N         142.5831  141.6012  168.2756 N.ar    1  UNL1       -0.2818
     14 C         142.6861  141.4724  166.7847 C.ar    1  UNL1        0.1011
     15 C         142.5744  142.5923  165.7931 C.ar    1  UNL1        0.1022
     16 C         141.2233  143.0634  165.3428 C.ar    1  UNL1        0.0414
     17 C         141.1116  144.1833  164.3512 C.ar    1  UNL1        0.1023
     18 N         142.3510  144.8322  163.8099 N.ar    1  UNL1       -0.2224
     19 C         143.7020  144.3612  164.2603 C.ar    1  UNL1        0.1989
     20 N         143.8137  143.2413  165.2519 N.ar    1  UNL1       -0.2224
     21 O         141.0726  137.1737  162.5293 O.3     1  UNL1       -0.4706
     22 C         139.6518  137.6541  162.5518 C.3     1  UNL1        0.2320
     23 C         137.8946  139.3049  166.3514 C.ar    1  UNL1       -0.0000
     24 C         138.2269  137.8457  166.2508 C.ar    1  UNL1       -0.0002
     25 C         138.8126  137.2953  164.9843 C.ar    1  UNL1       -0.0007
     26 C         139.0661  138.2043  163.8183 C.ar    1  UNL1        0.0212
     27 C         138.7338  139.6637  163.9189 C.ar    1  UNL1       -0.0007
     28 C         138.1481  140.2139  165.1854 C.ar    1  UNL1       -0.0002
@<TRIPOS>BOND
     1    23    24   ar
     2    24    25   ar
     3    25    26   ar
     4    26    22    1
     5    22    21    1
     6    21     1    1
     7     1     2   ar
     8     2     3   ar
     9     3     4   ar
    10     4     5   ar
    11     5     7    1
    12     7     8   ar
    13     8     9   ar
    14     9    10   ar
    15    10    11   ar
    16    11    12   ar
    17    12    13   ar
    18    13    14   ar
    19    14    15    1
    20    15    16   ar
    21    16    17   ar
    22    17    18   ar
    23    18    19   ar
    24    19    20   ar
    25     5     6   ar
    26    26    27   ar
    27    27    28   ar
    28    28    23   ar
    29     6     1   ar
    30    14     7   ar
    31    20    15   ar
    32    13     9   ar
@<TRIPOS>MOLECULE
*****
 28 32 0 0 0
SMALL
GASTEIGER

@<TRIPOS>ATOM
      1 C         138.8738  139.6177  167.8339 C.ar    1  UNL1        0.1391
      2 C         137.9949  138.6347  167.1186 C.ar    1  UNL1        0.0369
      3 C         138.3034  138.2442  165.7036 C.ar    1  UNL1        0.0032
      4 C         139.4907  138.8365  165.0039 C.ar    1  UNL1        0.0017
      5 C         140.3695  139.8194  165.7192 C.ar    1  UNL1        0.0222
      6 C         140.0610  140.2099  167.1343 C.ar    1  UNL1        0.0385
      7 C         141.5567  140.4117  165.0196 C.ar    1  UNL1        0.1010
      8 N         142.9426  139.8382  164.9955 N.ar    1  UNL1       -0.2205
      9 C         143.8090  140.7536  164.1822 C.ar    1  UNL1        0.1795
     10 S         145.2009  140.9648  163.6647 S.2     1  UNL1       -0.0480
     11 C         145.2108  142.2346  162.8662 C.ar    1  UNL1        0.0573
     12 C         143.8249  142.8081  162.8902 C.ar    1  UNL1        0.0890
     13 N         142.9586  141.8927  163.7035 N.ar    1  UNL1       -0.2818
     14 C         141.5666  141.6815  164.2210 C.ar    1  UNL1        0.1011
     15 C         140.3910  142.5819  163.9820 C.ar    1  UNL1        0.1022
     16 C         140.2333  143.8387  164.7855 C.ar    1  UNL1        0.0414
     17 C         139.0576  144.7391  164.5465 C.ar    1  UNL1        0.1023
     18 N         138.0396  144.3826  163.5040 N.ar    1  UNL1       -0.2224
     19 C         138.1973  143.1258  162.7006 C.ar    1  UNL1        0.1989
     20 N         139.3730  142.2254  162.9396 N.ar    1  UNL1       -0.2224
     21 O         138.5652  140.0082  169.2490 O.3     1  UNL1       -0.4706
     22 C         139.6416  139.9583  170.2925 C.3     1  UNL1        0.2320
     23 C         143.1769  142.7283  170.0124 C.ar    1  UNL1       -0.0000
     24 C         143.3872  141.2433  170.0290 C.ar    1  UNL1       -0.0002
     25 C         142.2088  140.3199  170.1224 C.ar    1  UNL1       -0.0007
     26 C         140.8201  140.8816  170.1991 C.ar    1  UNL1        0.0212
     27 C         140.6097  142.3668  170.1824 C.ar    1  UNL1       -0.0007
     28 C         141.7881  143.2901  170.0891 C.ar    1  UNL1       -0.0002
@<TRIPOS>BOND
     1    23    24   ar
     2    24    25   ar
     3    25    26   ar
     4    26    22    1
     5    22    21    1
     6    21     1    1
     7     1     2   ar
     8     2     3   ar
     9     3     4   ar
    10     4     5   ar
    11     5     7    1
    12     7     8   ar
    13     8     9   ar
    14     9    10   ar
    15    10    11   ar
    16    11    12   ar
    17    12    13   ar
    18    13    14   ar
    19    14    15    1
    20    15    16   ar
    21    16    17   ar
    22    17    18   ar
    23    18    19   ar
    24    19    20   ar
    25     5     6   ar
    26    26    27   ar
    27    27    28   ar
    28    28    23   ar
    29     6     1   ar
    30    14     7   ar
    31    20    15   ar
    32    13     9   ar
@<TRIPOS>MOLECULE
*****
 28 32 0 0 0
SMALL
GASTEIGER

@<TRIPOS>ATOM
      1 C         140.9933  138.2925  163.3679 C.ar    1  UNL1        0.1391
      2 C         139.6926  138.2319  162.6231 C.ar    1  UNL1        0.0369
      3 C         138.4752  138.9052  163.1839 C.ar    1  UNL1        0.0032
      4 C         138.5585  139.6392  164.4894 C.ar    1  UNL1        0.0017
      5 C         139.8592  139.6999  165.2341 C.ar    1  UNL1        0.0222
      6 C         141.0766  139.0265  164.6733 C.ar    1  UNL1        0.0385
      7 C         139.9424  140.4339  166.5395 C.ar    1  UNL1        0.1010
      8 N         139.6632  139.8561  167.8954 N.ar    1  UNL1       -0.2205
      9 C         139.8677  140.9397  168.9122 C.ar    1  UNL1        0.1795
     10 S         139.8216  141.2522  170.3785 S.2     1  UNL1       -0.0480
     11 C         140.1987  142.6930  170.5574 C.ar    1  UNL1        0.0573
     12 C         140.4779  143.2709  169.2016 C.ar    1  UNL1        0.0890
     13 N         140.2734  142.1873  168.1848 N.ar    1  UNL1       -0.2818
     14 C         140.3196  141.8747  166.7185 C.ar    1  UNL1        0.1011
     15 C         140.6796  142.8344  165.6233 C.ar    1  UNL1        0.1022
     16 C         142.0638  142.8277  165.0453 C.ar    1  UNL1        0.0414
     17 C         142.4239  143.7874  163.9502 C.ar    1  UNL1        0.1023
     18 N         141.3997  144.7538  163.4330 N.ar    1  UNL1       -0.2224
     19 C         140.0156  144.7604  164.0110 C.ar    1  UNL1        0.1989
     20 N         139.6556  143.8007  165.1061 N.ar    1  UNL1       -0.2224
     21 O         142.2108  137.6191  162.8070 O.3     1  UNL1       -0.4706
     22 C         143.1015  138.3554  161.8507 C.3     1  UNL1        0.2320
     23 C         145.5896  141.8130  163.3012 C.ar    1  UNL1       -0.0000
     24 C         144.9500  141.8659  161.9456 C.ar    1  UNL1       -0.0002
     25 C         144.1205  140.7134  161.4620 C.ar    1  UNL1       -0.0007
     26 C         143.9309  139.5079  162.3342 C.ar    1  UNL1        0.0212
     27 C         144.5705  139.4549  163.6900 C.ar    1  UNL1       -0.0007
     28 C         145.3999  140.6074  164.1735 C.ar    1  UNL1       -0.0002
@<TRIPOS>BOND
     1    23    24   ar
     2    24    25   ar
     3    25    26   ar
     4    26    22    1
     5    22    21    1
     6    21     1    1
     7     1     2   ar
     8     2     3   ar
     9     3     4   ar
    10     4     5   ar
    11     5     7    1
    12     7     8   ar
    13     8     9   ar
    14     9    10   ar
    15    10    11   ar
    16    11    12   ar
    17    12    13   ar
    18    13    14   ar
    19    14    15    1
    20    15    16   ar
    21    16    17   ar
    22    17    18   ar
    23    18    19   ar
    24    19    20   ar
    25     5     6   ar
    26    26    27   ar
    27    27    28   ar
    28    28    23   ar
    29     6     1   ar
    30    14     7   ar
    31    20    15   ar
    32    13     9   ar
@<TRIPOS>MOLECULE
*****
 28 32 0 0 0
SMALL
GASTEIGER

@<TRIPOS>ATOM
      1 C         144.4861  140.4921  162.7744 C.ar    1  UNL1        0.1391
      2 C         144.0876  139.3434  161.8957 C.ar    1  UNL1        0.0369
      3 C         143.1613  138.2856  162.4182 C.ar    1  UNL1        0.0032
      4 C         142.6334  138.3766  163.8194 C.ar    1  UNL1        0.0017
      5 C         143.0319  139.5252  164.6980 C.ar    1  UNL1        0.0222
      6 C         143.9582  140.5830  164.1754 C.ar    1  UNL1        0.0385
      7 C         142.5040  139.6160  166.0990 C.ar    1  UNL1        0.1010
      8 N         143.2261  139.1895  167.3427 N.ar    1  UNL1       -0.2205
      9 C         142.3297  139.4593  168.5148 C.ar    1  UNL1        0.1795
     10 S         142.2220  139.3624  170.0077 S.2     1  UNL1       -0.0480
     11 C         140.8793  139.8957  170.4111 C.ar    1  UNL1        0.0573
     12 C         140.1572  140.3222  169.1675 C.ar    1  UNL1        0.0890
     13 N         141.0536  140.0525  167.9954 N.ar    1  UNL1       -0.2818
     14 C         141.1613  140.1494  166.5025 C.ar    1  UNL1        0.1011
     15 C         140.1107  140.6855  165.5756 C.ar    1  UNL1        0.1022
     16 C         139.9615  142.1662  165.3874 C.ar    1  UNL1        0.0414
     17 C         138.9110  142.7023  164.4606 C.ar    1  UNL1        0.1023
     18 N         138.0097  141.7577  163.7220 N.ar    1  UNL1       -0.2224
     19 C         138.1589  140.2771  163.9102 C.ar    1  UNL1        0.1989
     20 N         139.2094  139.7410  164.8371 N.ar    1  UNL1       -0.2224
     21 O         145.4125  141.5499  162.2518 O.3     1  UNL1       -0.4706
     22 C         144.8626  142.7165  161.4859 C.3     1  UNL1        0.2320
     23 C         141.5219  145.1777  163.2272 C.ar    1  UNL1       -0.0000
     24 C         141.2676  144.3061  162.0332 C.ar    1  UNL1       -0.0002
     25 C         142.3812  143.4857  161.4528 C.ar    1  UNL1       -0.0007
     26 C         143.7490  143.5369  162.0663 C.ar    1  UNL1        0.0212
     27 C         144.0033  144.4086  163.2604 C.ar    1  UNL1       -0.0007
     28 C         142.8897  145.2290  163.8408 C.ar    1  UNL1       -0.0002
@<TRIPOS>BOND
     1    23    24   ar
     2    24    25   ar
     3    25    26   ar
     4    26    22    1
     5    22    21    1
     6    21     1    1
     7     1     2   ar
     8     2     3   ar
     9     3     4   ar
    10     4     5   ar
    11     5     7    1
    12     7     8   ar
    13     8     9   ar
    14     9    10   ar
    15    10    11   ar
    16    11    12   ar
    17    12    13   ar
    18    13    14   ar
    19    14    15    1
    20    15    16   ar
    21    16    17   ar
    22    17    18   ar
    23    18    19   ar
    24    19    20   ar
    25     5     6   ar
    26    26    27   ar
    27    27    28   ar
    28    28    23   ar
    29     6     1   ar
    30    14     7   ar
    31    20    15   ar
    32    13     9   ar
@<TRIPOS>MOLECULE
*****
 28 32 0 0 0
SMALL
GASTEIGER

@<TRIPOS>ATOM
      1 C         139.4331  140.1631  167.3493 C.ar    1  UNL1        0.1391
      2 C         139.9771  140.6976  168.6410 C.ar    1  UNL1        0.0369
      3 C         140.6343  142.0454  168.6775 C.ar    1  UNL1        0.0032
      4 C         140.7475  142.8588  167.4222 C.ar    1  UNL1        0.0017
      5 C         140.2036  142.3243  166.1305 C.ar    1  UNL1        0.0222
      6 C         139.5464  140.9764  166.0941 C.ar    1  UNL1        0.0385
      7 C         140.3169  143.1376  164.8753 C.ar    1  UNL1        0.1010
      8 N         139.3331  144.1647  164.3984 N.ar    1  UNL1       -0.2205
      9 C         139.8420  144.7286  163.1049 C.ar    1  UNL1        0.1795
     10 S         139.5485  145.7118  162.0108 S.2     1  UNL1       -0.0480
     11 C         140.6654  145.6409  161.0121 C.ar    1  UNL1        0.0573
     12 C         141.6492  144.6138  161.4889 C.ar    1  UNL1        0.0890
     13 N         141.1403  144.0500  162.7824 N.ar    1  UNL1       -0.2818
     14 C         141.4338  143.0667  163.8765 C.ar    1  UNL1        0.1011
     15 C         142.6335  142.1700  163.9576 C.ar    1  UNL1        0.1022
     16 C         144.0023  142.7615  164.1210 C.ar    1  UNL1        0.0414
     17 C         145.2020  141.8648  164.2021 C.ar    1  UNL1        0.1023
     18 N         145.0330  140.3766  164.1199 N.ar    1  UNL1       -0.2224
     19 C         143.6642  139.7852  163.9565 C.ar    1  UNL1        0.1989
     20 N         142.4645  140.6819  163.8754 N.ar    1  UNL1       -0.2224
     21 O         138.7759  138.8151  167.3129 O.3     1  UNL1       -0.4706
     22 C         138.1503  138.3199  166.0427 C.3     1  UNL1        0.2320
     23 C         140.6971  137.6442  162.3948 C.ar    1  UNL1       -0.0000
     24 C         141.1550  137.1433  163.7324 C.ar    1  UNL1       -0.0002
     25 C         140.3060  137.3685  164.9485 C.ar    1  UNL1       -0.0007
     26 C         138.9992  138.0947  164.8267 C.ar    1  UNL1        0.0212
     27 C         138.5412  138.5956  163.4891 C.ar    1  UNL1       -0.0007
     28 C         139.3901  138.3704  162.2731 C.ar    1  UNL1       -0.0002
@<TRIPOS>BOND
     1    23    24   ar
     2    24    25   ar
     3    25    26   ar
     4    26    22    1
     5    22    21    1
     6    21     1    1
     7     1     2   ar
     8     2     3   ar
     9     3     4   ar
    10     4     5   ar
    11     5     7    1
    12     7     8   ar
    13     8     9   ar
    14     9    10   ar
    15    10    11   ar
    16    11    12   ar
    17    12    13   ar
    18    13    14   ar
    19    14    15    1
    20    15    16   ar
    21    16    17   ar
    22    17    18   ar
    23    18    19   ar
    24    19    20   ar
    25     5     6   ar
    26    26    27   ar
    27    27    28   ar
    28    28    23   ar
    29     6     1   ar
    30    14     7   ar
    31    20    15   ar
    32    13     9   ar
@<TRIPOS>MOLECULE
*****
 28 32 0 0 0
SMALL
GASTEIGER

@<TRIPOS>ATOM
      1 C         139.7019  140.2874  168.0660 C.ar    1  UNL1        0.1391
      2 C         139.8431  141.2015  169.2470 C.ar    1  UNL1        0.0369
      3 C         140.8089  142.3481  169.1966 C.ar    1  UNL1        0.0032
      4 C         141.6335  142.5805  167.9653 C.ar    1  UNL1        0.0017
      5 C         141.4923  141.6664  166.7844 C.ar    1  UNL1        0.0222
      6 C         140.5264  140.5198  166.8348 C.ar    1  UNL1        0.0385
      7 C         142.3168  141.8989  165.5532 C.ar    1  UNL1        0.1010
      8 N         143.7460  141.4870  165.3583 N.ar    1  UNL1       -0.2205
      9 C         144.1695  141.9176  163.9853 C.ar    1  UNL1        0.1795
     10 S         145.3145  141.9291  163.0163 S.2     1  UNL1       -0.0480
     11 C         144.8547  142.6144  161.7637 C.ar    1  UNL1        0.0573
     12 C         143.4256  143.0263  161.9585 C.ar    1  UNL1        0.0890
     13 N         143.0021  142.5957  163.3315 N.ar    1  UNL1       -0.2818
     14 C         141.8571  142.5842  164.3005 C.ar    1  UNL1        0.1011
     15 C         140.4920  143.1572  164.0592 C.ar    1  UNL1        0.1022
     16 C         139.8374  144.0036  165.1105 C.ar    1  UNL1        0.0414
     17 C         138.4723  144.5767  164.8692 C.ar    1  UNL1        0.1023
     18 N         137.7619  144.3034  163.5766 N.ar    1  UNL1       -0.2224
     19 C         138.4166  143.4570  162.5254 C.ar    1  UNL1        0.1989
     20 N         139.7816  142.8840  162.7667 N.ar    1  UNL1       -0.2224
     21 O         138.7360  139.1408  168.1165 O.3     1  UNL1       -0.4706
     22 C         137.7420  138.9483  167.0097 C.3     1  UNL1        0.2320
     23 C         139.1624  138.4899  162.7645 C.ar    1  UNL1       -0.0000
     24 C         139.4131  137.3975  163.7613 C.ar    1  UNL1       -0.0002
     25 C         138.9396  137.5503  165.1764 C.ar    1  UNL1       -0.0007
     26 C         138.2155  138.7955  165.5946 C.ar    1  UNL1        0.0212
     27 C         137.9647  139.8880  164.5978 C.ar    1  UNL1       -0.0007
     28 C         138.4382  139.7352  163.1827 C.ar    1  UNL1       -0.0002
@<TRIPOS>BOND
     1    23    24   ar
     2    24    25   ar
     3    25    26   ar
     4    26    22    1
     5    22    21    1
     6    21     1    1
     7     1     2   ar
     8     2     3   ar
     9     3     4   ar
    10     4     5   ar
    11     5     7    1
    12     7     8   ar
    13     8     9   ar
    14     9    10   ar
    15    10    11   ar
    16    11    12   ar
    17    12    13   ar
    18    13    14   ar
    19    14    15    1
    20    15    16   ar
    21    16    17   ar
    22    17    18   ar
    23    18    19   ar
    24    19    20   ar
    25     5     6   ar
    26    26    27   ar
    27    27    28   ar
    28    28    23   ar
    29     6     1   ar
    30    14     7   ar
    31    20    15   ar
    32    13     9   ar
@<TRIPOS>MOLECULE
*****
 28 32 0 0 0
SMALL
GASTEIGER

@<TRIPOS>ATOM
      1 C         138.6523  141.6822  162.9272 C.ar    1  UNL1        0.1391
      2 C         139.1954  142.6367  161.9053 C.ar    1  UNL1        0.0369
      3 C         140.2965  143.5855  162.2758 C.ar    1  UNL1        0.0032
      4 C         140.8544  143.5800  163.6682 C.ar    1  UNL1        0.0017
      5 C         140.3114  142.6256  164.6901 C.ar    1  UNL1        0.0222
      6 C         139.2102  141.6767  164.3195 C.ar    1  UNL1        0.0385
      7 C         140.8693  142.6201  166.0823 C.ar    1  UNL1        0.1010
      8 N         140.1559  143.0777  167.3200 N.ar    1  UNL1       -0.2205
      9 C         141.0843  142.8964  168.4841 C.ar    1  UNL1        0.1795
     10 S         141.2171  143.0672  169.9684 S.2     1  UNL1       -0.0480
     11 C         142.5865  142.6031  170.3676 C.ar    1  UNL1        0.0573
     12 C         143.3000  142.1455  169.1300 C.ar    1  UNL1        0.0890
     13 N         142.3716  142.3268  167.9659 N.ar    1  UNL1       -0.2818
     14 C         142.2387  142.1560  166.4816 C.ar    1  UNL1        0.1011
     15 C         143.2906  141.6159  165.5586 C.ar    1  UNL1        0.1022
     16 C         143.3034  140.1575  165.2077 C.ar    1  UNL1        0.0414
     17 C         144.3552  139.6175  164.2846 C.ar    1  UNL1        0.1023
     18 N         145.3942  140.5358  163.7126 N.ar    1  UNL1       -0.2224
     19 C         145.3814  141.9940  164.0635 C.ar    1  UNL1        0.1989
     20 N         144.3296  142.5341  164.9865 N.ar    1  UNL1       -0.2224
     21 O         137.5512  140.7334  162.5567 O.3     1  UNL1       -0.4706
     22 C         137.8801  139.3359  162.1220 C.3     1  UNL1        0.2320
     23 C         141.2504  137.1004  164.0951 C.ar    1  UNL1       -0.0000
     24 C         139.9873  137.3767  164.8553 C.ar    1  UNL1       -0.0002
     25 C         138.8637  138.1219  164.1976 C.ar    1  UNL1       -0.0007
     26 C         139.0035  138.5908  162.7797 C.ar    1  UNL1        0.0212
     27 C         140.2667  138.3145  162.0194 C.ar    1  UNL1       -0.0007
     28 C         141.3902  137.5694  162.6771 C.ar    1  UNL1       -0.0002
@<TRIPOS>BOND
     1    23    24   ar
     2    24    25   ar
     3    25    26   ar
     4    26    22    1
     5    22    21    1
     6    21     1    1
     7     1     2   ar
     8     2     3   ar
     9     3     4   ar
    10     4     5   ar
    11     5     7    1
    12     7     8   ar
    13     8     9   ar
    14     9    10   ar
    15    10    11   ar
    16    11    12   ar
    17    12    13   ar
    18    13    14   ar
    19    14    15    1
    20    15    16   ar
    21    16    17   ar
    22    17    18   ar
    23    18    19   ar
    24    19    20   ar
    25     5     6   ar
    26    26    27   ar
    27    27    28   ar
    28    28    23   ar
    29     6     1   ar
    30    14     7   ar
    31    20    15   ar
    32    13     9   ar
@<TRIPOS>MOLECULE
*****
 28 32 0 0 0
SMALL
GASTEIGER

@<TRIPOS>ATOM
      1 C         143.3563  143.7542  162.8679 C.ar    1  UNL1        0.1391
      2 C         144.5700  143.0910  162.2871 C.ar    1  UNL1        0.0369
      3 C         145.3095  142.0539  163.0793 C.ar    1  UNL1        0.0032
      4 C         144.8351  141.6800  164.4524 C.ar    1  UNL1        0.0017
      5 C         143.6215  142.3430  165.0332 C.ar    1  UNL1        0.0222
      6 C         142.8821  143.3802  164.2408 C.ar    1  UNL1        0.0385
      7 C         143.1473  141.9691  166.4061 C.ar    1  UNL1        0.1010
      8 N         143.5545  142.6294  167.6899 N.ar    1  UNL1       -0.2205
      9 C         142.8414  141.9375  168.8137 C.ar    1  UNL1        0.1795
     10 S         142.6525  141.9180  170.3016 S.2     1  UNL1       -0.0480
     11 C         141.6876  140.8180  170.6319 C.ar    1  UNL1        0.0573
     12 C         141.2803  140.1577  169.3481 C.ar    1  UNL1        0.0890
     13 N         141.9934  140.8495  168.2244 N.ar    1  UNL1       -0.2818
     14 C         142.1824  140.8690  166.7365 C.ar    1  UNL1        0.1011
     15 C         141.5224  139.9499  165.7517 C.ar    1  UNL1        0.1022
     16 C         140.3029  140.4022  165.0044 C.ar    1  UNL1        0.0414
     17 C         139.6430  139.4831  164.0197 C.ar    1  UNL1        0.1023
     18 N         140.2025  138.1117  163.7823 N.ar    1  UNL1       -0.2224
     19 C         141.4219  137.6594  164.5296 C.ar    1  UNL1        0.1989
     20 N         142.0819  138.5786  165.5143 N.ar    1  UNL1       -0.2224
     21 O         142.6169  144.7913  162.0755 O.3     1  UNL1       -0.4706
     22 C         141.2565  144.4842  161.5233 C.3     1  UNL1        0.2320
     23 C         137.8394  143.6079  164.3171 C.ar    1  UNL1       -0.0000
     24 C         138.0385  142.7692  163.0896 C.ar    1  UNL1       -0.0002
     25 C         139.1776  143.0613  162.1582 C.ar    1  UNL1       -0.0007
     26 C         140.1175  144.1921  162.4545 C.ar    1  UNL1        0.0212
     27 C         139.9184  145.0309  163.6821 C.ar    1  UNL1       -0.0007
     28 C         138.7793  144.7388  164.6134 C.ar    1  UNL1       -0.0002
@<TRIPOS>BOND
     1    23    24   ar
     2    24    25   ar
     3    25    26   ar
     4    26    22    1
     5    22    21    1
     6    21     1    1
     7     1     2   ar
     8     2     3   ar
     9     3     4   ar
    10     4     5   ar
    11     5     7    1
    12     7     8   ar
    13     8     9   ar
    14     9    10   ar
    15    10    11   ar
    16    11    12   ar
    17    12    13   ar
    18    13    14   ar
    19    14    15    1
    20    15    16   ar
    21    16    17   ar
    22    17    18   ar
    23    18    19   ar
    24    19    20   ar
    25     5     6   ar
    26    26    27   ar
    27    27    28   ar
    28    28    23   ar
    29     6     1   ar
    30    14     7   ar
    31    20    15   ar
    32    13     9   ar
