@<TRIPOS>MOLECULE
*****
 26 28 0 0 0
SMALL
GASTEIGER

@<TRIPOS>ATOM
      1 C         139.9771  144.3756  163.5244 C.ar    1  UNL1        0.1253
      2 C         141.3882  144.5540  163.0479 C.ar    1  UNL1        0.1098
      3 N         141.6694  144.7274  161.5848 N.ar    1  UNL1       -0.2234
      4 C         140.5396  144.7223  160.5981 C.ar    1  UNL1        0.1831
      5 N         139.1285  144.5439  161.0746 N.ar    1  UNL1       -0.1910
      6 C         138.8473  144.3705  162.5378 C.ar    1  UNL1        0.2289
      7 O         137.4363  144.1921  163.0143 O.3     1  UNL1       -0.4918
      8 H         136.7305  144.1889  162.3980 H       1  UNL1        0.2938
      9 C         140.8209  144.8957  159.1349 C.ar    1  UNL1        0.1171
     10 C         139.9256  144.2524  158.1177 C.ar    1  UNL1        0.0223
     11 C         140.2069  144.4257  156.6546 C.ar    1  UNL1        0.0032
     12 C         141.3834  145.2424  156.2086 C.ar    1  UNL1        0.0207
     13 C         142.2787  145.8857  157.2258 C.ar    1  UNL1        0.0989
     14 N         141.9974  145.7123  158.6890 N.ar    1  UNL1       -0.2407
     15 O         138.6051  144.9979  165.6410 O.2     1  UNL1       -0.2699
     16 C         139.6959  144.2023  164.9875 C.2     1  UNL1        0.2522
     17 N         140.5054  143.2332  165.7973 N.am    1  UNL1       -0.2967
     18 H         141.2214  142.7110  165.3684 H       1  UNL1        0.1501
     19 C         140.2242  143.0598  167.2604 C.3     1  UNL1        0.1166
     20 C         140.7626  141.8657  167.9913 C.ar    1  UNL1       -0.0024
     21 C         139.9106  141.1590  169.0036 C.ar    1  UNL1       -0.0003
     22 C         140.4490  139.9649  169.7345 C.ar    1  UNL1        0.0294
     23 C         141.8394  139.4775  169.4531 C.ar    1  UNL1        0.1401
     24 F         142.3777  138.2833  170.1840 F       1  UNL1       -0.2042
     25 C         142.6913  140.1841  168.4408 C.ar    1  UNL1        0.0294
     26 C         142.1529  141.3782  167.7099 C.ar    1  UNL1       -0.0003
@<TRIPOS>BOND
     1    15    16    2
     2    16    17   am
     3    17    19    1
     4    19    20    1
     5    20    21   ar
     6    21    22   ar
     7    22    23   ar
     8    23    24    1
     9    23    25   ar
    10    25    26   ar
    11    16     1    1
    12     1     2   ar
    13     2     3   ar
    14     3     4   ar
    15     4     9    1
    16     9    10   ar
    17    10    11   ar
    18    11    12   ar
    19    12    13   ar
    20    13    14   ar
    21     4     5   ar
    22     5     6   ar
    23     6     7    1
    24    26    20   ar
    25     6     1   ar
    26    14     9   ar
    27    17    18    1
    28     7     8    1
@<TRIPOS>MOLECULE
*****
 26 28 0 0 0
SMALL
GASTEIGER

@<TRIPOS>ATOM
      1 C         140.8166  144.1694  162.3741 C.ar    1  UNL1        0.1253
      2 C         142.1054  144.0179  161.6217 C.ar    1  UNL1        0.1098
      3 N         142.1811  144.4123  160.1765 N.ar    1  UNL1       -0.2234
      4 C         140.9679  144.9583  159.4836 C.ar    1  UNL1        0.1831
      5 N         139.6791  145.1098  160.2359 N.ar    1  UNL1       -0.1910
      6 C         139.6034  144.7154  161.6812 C.ar    1  UNL1        0.2289
      7 O         138.3146  144.8670  162.4335 O.3     1  UNL1       -0.4918
      8 H         137.5568  145.2080  162.0007 H       1  UNL1        0.2938
      9 C         141.0435  145.3527  158.0384 C.ar    1  UNL1        0.1171
     10 C         142.1410  144.8127  157.1700 C.ar    1  UNL1        0.0223
     11 C         142.2167  145.2071  155.7248 C.ar    1  UNL1        0.0032
     12 C         141.1948  146.1415  155.1479 C.ar    1  UNL1        0.0207
     13 C         140.0973  146.6814  156.0162 C.ar    1  UNL1        0.0989
     14 N         140.0217  146.2870  157.4615 N.ar    1  UNL1       -0.2407
     15 O         140.0220  144.6535  164.7998 O.2     1  UNL1       -0.2699
     16 C         140.7409  143.7751  163.8193 C.2     1  UNL1        0.2522
     17 N         141.3842  142.5021  164.2840 N.am    1  UNL1       -0.2967
     18 H         141.8561  141.9255  163.6405 H       1  UNL1        0.1501
     19 C         141.3086  142.1077  165.7292 C.3     1  UNL1        0.1166
     20 C         140.2661  141.1309  166.1865 C.ar    1  UNL1       -0.0024
     21 C         140.1654  140.7661  167.6380 C.ar    1  UNL1       -0.0003
     22 C         139.1230  139.7893  168.0952 C.ar    1  UNL1        0.0294
     23 C         138.1812  139.1773  167.1010 C.ar    1  UNL1        0.1401
     24 F         137.1387  138.2004  167.5583 F       1  UNL1       -0.2042
     25 C         138.2818  139.5421  165.6495 C.ar    1  UNL1        0.0294
     26 C         139.3243  140.5189  165.1923 C.ar    1  UNL1       -0.0003
@<TRIPOS>BOND
     1    15    16    2
     2    16    17   am
     3    17    19    1
     4    19    20    1
     5    20    21   ar
     6    21    22   ar
     7    22    23   ar
     8    23    24    1
     9    23    25   ar
    10    25    26   ar
    11    16     1    1
    12     1     2   ar
    13     2     3   ar
    14     3     4   ar
    15     4     9    1
    16     9    10   ar
    17    10    11   ar
    18    11    12   ar
    19    12    13   ar
    20    13    14   ar
    21     4     5   ar
    22     5     6   ar
    23     6     7    1
    24    26    20   ar
    25     6     1   ar
    26    14     9   ar
    27    17    18    1
    28     7     8    1
@<TRIPOS>MOLECULE
*****
 26 28 0 0 0
SMALL
GASTEIGER

@<TRIPOS>ATOM
      1 C         140.0477  143.7713  163.2057 C.ar    1  UNL1        0.1253
      2 C         141.4561  143.6460  162.7050 C.ar    1  UNL1        0.1098
      3 N         141.7830  144.0085  161.2867 N.ar    1  UNL1       -0.2234
      4 C         140.7014  144.4965  160.3689 C.ar    1  UNL1        0.1831
      5 N         139.2930  144.6218  160.8696 N.ar    1  UNL1       -0.1910
      6 C         138.9661  144.2592  162.2880 C.ar    1  UNL1        0.2289
      7 O         137.5577  144.3846  162.7886 O.3     1  UNL1       -0.4918
      8 H         136.8821  144.6894  162.2154 H       1  UNL1        0.2938
      9 C         141.0283  144.8590  158.9506 C.ar    1  UNL1        0.1171
     10 C         142.2189  144.2457  158.2750 C.ar    1  UNL1        0.0223
     11 C         142.5457  144.6082  156.8567 C.ar    1  UNL1        0.0032
     12 C         141.6820  145.5841  156.1139 C.ar    1  UNL1        0.0207
     13 C         140.4914  146.1974  156.7895 C.ar    1  UNL1        0.0989
     14 N         140.1646  145.8348  158.2079 N.ar    1  UNL1       -0.2407
     15 O         138.8905  144.3348  165.4625 O.2     1  UNL1       -0.2699
     16 C         139.7208  143.4088  164.6240 C.2     1  UNL1        0.2522
     17 N         140.2243  142.1202  165.2038 N.am    1  UNL1       -0.2967
     18 H         140.7692  141.5124  164.6535 H       1  UNL1        0.1501
     19 C         139.8974  141.7576  166.6221 C.3     1  UNL1        0.1166
     20 C         140.7913  142.2124  167.7376 C.ar    1  UNL1       -0.0024
     21 C         142.2143  141.7420  167.7977 C.ar    1  UNL1       -0.0003
     22 C         143.1081  142.1968  168.9131 C.ar    1  UNL1        0.0294
     23 C         142.5789  143.1220  169.9685 C.ar    1  UNL1        0.1401
     24 F         143.4727  143.5768  171.0840 F       1  UNL1       -0.2042
     25 C         141.1558  143.5925  169.9084 C.ar    1  UNL1        0.0294
     26 C         140.2620  143.1377  168.7930 C.ar    1  UNL1       -0.0003
@<TRIPOS>BOND
     1    15    16    2
     2    16    17   am
     3    17    19    1
     4    19    20    1
     5    20    21   ar
     6    21    22   ar
     7    22    23   ar
     8    23    24    1
     9    23    25   ar
    10    25    26   ar
    11    16     1    1
    12     1     2   ar
    13     2     3   ar
    14     3     4   ar
    15     4     9    1
    16     9    10   ar
    17    10    11   ar
    18    11    12   ar
    19    12    13   ar
    20    13    14   ar
    21     4     5   ar
    22     5     6   ar
    23     6     7    1
    24    26    20   ar
    25     6     1   ar
    26    14     9   ar
    27    17    18    1
    28     7     8    1
@<TRIPOS>MOLECULE
*****
 26 28 0 0 0
SMALL
GASTEIGER

@<TRIPOS>ATOM
      1 C         141.3265  144.8915  159.9868 C.ar    1  UNL1        0.1253
      2 C         142.3427  143.8553  160.3658 C.ar    1  UNL1        0.1098
      3 N         142.3980  143.3384  161.7728 N.ar    1  UNL1       -0.2234
      4 C         141.4370  143.8577  162.8009 C.ar    1  UNL1        0.1831
      5 N         140.4208  144.8939  162.4219 N.ar    1  UNL1       -0.1910
      6 C         140.3656  145.4108  161.0148 C.ar    1  UNL1        0.2289
      7 O         139.3494  146.4469  160.6358 O.3     1  UNL1       -0.4918
      8 H         138.7491  146.7713  161.2780 H       1  UNL1        0.2938
      9 C         141.4922  143.3408  164.2079 C.ar    1  UNL1        0.1171
     10 C         140.2658  143.3814  165.0706 C.ar    1  UNL1        0.0223
     11 C         140.3210  142.8645  166.4776 C.ar    1  UNL1        0.0032
     12 C         141.6028  142.3070  167.0220 C.ar    1  UNL1        0.0207
     13 C         142.8292  142.2664  166.1594 C.ar    1  UNL1        0.0989
     14 N         142.7739  142.7833  164.7523 N.ar    1  UNL1       -0.2407
     15 O         142.4463  146.1410  158.0033 O.2     1  UNL1       -0.2699
     16 C         141.2713  145.4083  158.5798 C.2     1  UNL1        0.2522
     17 N         140.0409  145.1926  157.7493 N.am    1  UNL1       -0.2967
     18 H         139.2697  144.7117  158.1276 H       1  UNL1        0.1501
     19 C         139.9857  145.7094  156.3422 C.3     1  UNL1        0.1166
     20 C         139.5485  147.1198  156.0779 C.ar    1  UNL1       -0.0024
     21 C         138.8439  147.8996  157.1481 C.ar    1  UNL1       -0.0003
     22 C         138.4068  149.3099  156.8838 C.ar    1  UNL1        0.0294
     23 C         138.6743  149.9404  155.5493 C.ar    1  UNL1        0.1401
     24 F         138.2371  151.3508  155.2850 F       1  UNL1       -0.2042
     25 C         139.3790  149.1606  154.4791 C.ar    1  UNL1        0.0294
     26 C         139.8161  147.7503  154.7434 C.ar    1  UNL1       -0.0003
@<TRIPOS>BOND
     1    15    16    2
     2    16    17   am
     3    17    19    1
     4    19    20    1
     5    20    21   ar
     6    21    22   ar
     7    22    23   ar
     8    23    24    1
     9    23    25   ar
    10    25    26   ar
    11    16     1    1
    12     1     2   ar
    13     2     3   ar
    14     3     4   ar
    15     4     9    1
    16     9    10   ar
    17    10    11   ar
    18    11    12   ar
    19    12    13   ar
    20    13    14   ar
    21     4     5   ar
    22     5     6   ar
    23     6     7    1
    24    26    20   ar
    25     6     1   ar
    26    14     9   ar
    27    17    18    1
    28     7     8    1
@<TRIPOS>MOLECULE
*****
 26 28 0 0 0
SMALL
GASTEIGER

@<TRIPOS>ATOM
      1 C         140.9078  145.1744  158.4027 C.ar    1  UNL1        0.1253
      2 C         140.2597  145.4843  159.7194 C.ar    1  UNL1        0.1098
      3 N         140.9162  145.0549  160.9980 N.ar    1  UNL1       -0.2234
      4 C         142.2208  144.3155  160.9597 C.ar    1  UNL1        0.1831
      5 N         142.8689  144.0056  159.6429 N.ar    1  UNL1       -0.1910
      6 C         142.2124  144.4351  158.3644 C.ar    1  UNL1        0.2289
      7 O         142.8605  144.1252  157.0476 O.3     1  UNL1       -0.4918
      8 H         143.6754  143.6634  157.0237 H       1  UNL1        0.2938
      9 C         142.8772  143.8861  162.2382 C.ar    1  UNL1        0.1171
     10 C         143.2887  144.9126  163.2517 C.ar    1  UNL1        0.0223
     11 C         143.9451  144.4832  164.5302 C.ar    1  UNL1        0.0032
     12 C         144.1902  143.0272  164.7953 C.ar    1  UNL1        0.0207
     13 C         143.7788  142.0008  163.7818 C.ar    1  UNL1        0.0989
     14 N         143.1223  142.4303  162.5033 N.ar    1  UNL1       -0.2407
     15 O         140.2357  144.6804  155.9421 O.2     1  UNL1       -0.2699
     16 C         140.2513  145.6038  157.1242 C.2     1  UNL1        0.2522
     17 N         139.6105  146.9567  157.0276 N.am    1  UNL1       -0.2967
     18 H         139.6208  147.5627  157.8034 H       1  UNL1        0.1501
     19 C         138.9541  147.3861  155.7491 C.3     1  UNL1        0.1166
     20 C         139.1174  148.7941  155.2582 C.ar    1  UNL1       -0.0024
     21 C         138.4294  149.9210  155.9698 C.ar    1  UNL1       -0.0003
     22 C         138.5927  151.3289  155.4789 C.ar    1  UNL1        0.0294
     23 C         139.4441  151.6099  154.2763 C.ar    1  UNL1        0.1401
     24 F         139.6075  153.0179  153.7854 F       1  UNL1       -0.2042
     25 C         140.1322  150.4829  153.5647 C.ar    1  UNL1        0.0294
     26 C         139.9688  149.0750  154.0556 C.ar    1  UNL1       -0.0003
@<TRIPOS>BOND
     1    15    16    2
     2    16    17   am
     3    17    19    1
     4    19    20    1
     5    20    21   ar
     6    21    22   ar
     7    22    23   ar
     8    23    24    1
     9    23    25   ar
    10    25    26   ar
    11    16     1    1
    12     1     2   ar
    13     2     3   ar
    14     3     4   ar
    15     4     9    1
    16     9    10   ar
    17    10    11   ar
    18    11    12   ar
    19    12    13   ar
    20    13    14   ar
    21     4     5   ar
    22     5     6   ar
    23     6     7    1
    24    26    20   ar
    25     6     1   ar
    26    14     9   ar
    27    17    18    1
    28     7     8    1
@<TRIPOS>MOLECULE
*****
 26 28 0 0 0
SMALL
GASTEIGER

@<TRIPOS>ATOM
      1 C         142.5679  143.8132  163.1002 C.ar    1  UNL1        0.1253
      2 C         143.3723  143.2761  161.9536 C.ar    1  UNL1        0.1098
      3 N         143.0240  143.6629  160.5469 N.ar    1  UNL1       -0.2234
      4 C         141.8713  144.5868  160.2866 C.ar    1  UNL1        0.1831
      5 N         141.0669  145.1240  161.4331 N.ar    1  UNL1       -0.1910
      6 C         141.4153  144.7371  162.8400 C.ar    1  UNL1        0.2289
      7 O         140.6109  145.2742  163.9865 O.3     1  UNL1       -0.4918
      8 H         139.8909  145.8514  163.8239 H       1  UNL1        0.2938
      9 C         141.5230  144.9736  158.8798 C.ar    1  UNL1        0.1171
     10 C         142.4175  144.5664  157.7467 C.ar    1  UNL1        0.0223
     11 C         142.0692  144.9532  156.3399 C.ar    1  UNL1        0.0032
     12 C         140.8263  145.7473  156.0663 C.ar    1  UNL1        0.0207
     13 C         139.9318  146.1545  157.1994 C.ar    1  UNL1        0.0989
     14 N         140.2802  145.7677  158.6062 N.ar    1  UNL1       -0.2407
     15 O         144.3010  143.6683  165.0303 O.2     1  UNL1       -0.2699
     16 C         142.9162  143.4264  164.5069 C.2     1  UNL1        0.2522
     17 N         141.8797  142.7976  165.3904 N.am    1  UNL1       -0.2967
     18 H         140.9709  142.6388  165.0469 H       1  UNL1        0.1501
     19 C         142.2280  142.4108  166.7972 C.3     1  UNL1        0.1166
     20 C         141.1890  141.7905  167.6836 C.ar    1  UNL1       -0.0024
     21 C         140.8616  142.4162  169.0069 C.ar    1  UNL1       -0.0003
     22 C         139.8226  141.7958  169.8933 C.ar    1  UNL1        0.0294
     23 C         139.1110  140.5498  169.4563 C.ar    1  UNL1        0.1401
     24 F         138.0720  139.9295  170.3427 F       1  UNL1       -0.2042
     25 C         139.4384  139.9241  168.1329 C.ar    1  UNL1        0.0294
     26 C         140.4774  140.5444  167.2466 C.ar    1  UNL1       -0.0003
@<TRIPOS>BOND
     1    15    16    2
     2    16    17   am
     3    17    19    1
     4    19    20    1
     5    20    21   ar
     6    21    22   ar
     7    22    23   ar
     8    23    24    1
     9    23    25   ar
    10    25    26   ar
    11    16     1    1
    12     1     2   ar
    13     2     3   ar
    14     3     4   ar
    15     4     9    1
    16     9    10   ar
    17    10    11   ar
    18    11    12   ar
    19    12    13   ar
    20    13    14   ar
    21     4     5   ar
    22     5     6   ar
    23     6     7    1
    24    26    20   ar
    25     6     1   ar
    26    14     9   ar
    27    17    18    1
    28     7     8    1
@<TRIPOS>MOLECULE
*****
 26 28 0 0 0
SMALL
GASTEIGER

@<TRIPOS>ATOM
      1 C         144.0668  143.1363  164.0577 C.ar    1  UNL1        0.1253
      2 C         143.6439  144.3554  163.2929 C.ar    1  UNL1        0.1098
      3 N         143.5124  144.2960  161.7999 N.ar    1  UNL1       -0.2234
      4 C         143.8038  143.0174  161.0716 C.ar    1  UNL1        0.1831
      5 N         144.2267  141.7983  161.8363 N.ar    1  UNL1       -0.1910
      6 C         144.3582  141.8578  163.3294 C.ar    1  UNL1        0.2289
      7 O         144.7811  140.6386  164.0942 O.3     1  UNL1       -0.4918
      8 H         144.9631  139.8400  163.6393 H       1  UNL1        0.2938
      9 C         143.6724  142.9580  159.5786 C.ar    1  UNL1        0.1171
     10 C         144.3776  141.8832  158.8057 C.ar    1  UNL1        0.0223
     11 C         144.2461  141.8238  157.3127 C.ar    1  UNL1        0.0032
     12 C         143.4094  142.8393  156.5924 C.ar    1  UNL1        0.0207
     13 C         142.7042  143.9142  157.3653 C.ar    1  UNL1        0.0989
     14 N         142.8357  143.9735  158.8584 N.ar    1  UNL1       -0.2407
     15 O         145.2483  144.0645  166.1772 O.2     1  UNL1       -0.2699
     16 C         144.1982  143.1957  165.5507 C.2     1  UNL1        0.2522
     17 N         143.2796  142.3862  166.4173 N.am    1  UNL1       -0.2967
     18 H         142.5904  141.8160  166.0062 H       1  UNL1        0.1501
     19 C         143.4110  142.4456  167.9103 C.3     1  UNL1        0.1166
     20 C         142.4497  141.6892  168.7786 C.ar    1  UNL1       -0.0024
     21 C         142.6899  140.2389  169.0767 C.ar    1  UNL1       -0.0003
     22 C         141.7286  139.4825  169.9449 C.ar    1  UNL1        0.0294
     23 C         140.5272  140.1765  170.5150 C.ar    1  UNL1        0.1401
     24 F         139.5659  139.4201  171.3833 F       1  UNL1       -0.2042
     25 C         140.2871  141.6268  170.2170 C.ar    1  UNL1        0.0294
     26 C         141.2483  142.3831  169.3487 C.ar    1  UNL1       -0.0003
@<TRIPOS>BOND
     1    15    16    2
     2    16    17   am
     3    17    19    1
     4    19    20    1
     5    20    21   ar
     6    21    22   ar
     7    22    23   ar
     8    23    24    1
     9    23    25   ar
    10    25    26   ar
    11    16     1    1
    12     1     2   ar
    13     2     3   ar
    14     3     4   ar
    15     4     9    1
    16     9    10   ar
    17    10    11   ar
    18    11    12   ar
    19    12    13   ar
    20    13    14   ar
    21     4     5   ar
    22     5     6   ar
    23     6     7    1
    24    26    20   ar
    25     6     1   ar
    26    14     9   ar
    27    17    18    1
    28     7     8    1
@<TRIPOS>MOLECULE
*****
 26 28 0 0 0
SMALL
GASTEIGER

@<TRIPOS>ATOM
      1 C         138.6775  139.1207  162.8042 C.ar    1  UNL1        0.1253
      2 C         139.5293  138.3428  161.8454 C.ar    1  UNL1        0.1098
      3 N         139.4925  138.6620  160.3803 N.ar    1  UNL1       -0.2234
      4 C         138.6038  139.7592  159.8738 C.ar    1  UNL1        0.1831
      5 N         137.7520  140.5371  160.8326 N.ar    1  UNL1       -0.1910
      6 C         137.7889  140.2179  162.2978 C.ar    1  UNL1        0.2289
      7 O         136.9370  140.9958  163.2565 O.3     1  UNL1       -0.4918
      8 H         136.3819  141.6812  162.9402 H       1  UNL1        0.2938
      9 C         138.5670  140.0784  158.4087 C.ar    1  UNL1        0.1171
     10 C         139.8288  140.0318  157.5990 C.ar    1  UNL1        0.0223
     11 C         139.7919  140.3510  156.1338 C.ar    1  UNL1        0.0032
     12 C         138.4932  140.7168  155.4783 C.ar    1  UNL1        0.0207
     13 C         137.2314  140.7634  156.2880 C.ar    1  UNL1        0.0989
     14 N         137.2683  140.4441  157.7532 N.ar    1  UNL1       -0.2407
     15 O         138.7680  137.3733  164.7247 O.2     1  UNL1       -0.2699
     16 C         138.7144  138.8015  164.2693 C.2     1  UNL1        0.2522
     17 N         138.6975  139.9105  165.2792 N.am    1  UNL1       -0.2967
     18 H         138.6623  140.8479  164.9804 H       1  UNL1        0.1501
     19 C         138.7344  139.5913  166.7444 C.3     1  UNL1        0.1166
     20 C         139.9501  139.9297  167.5554 C.ar    1  UNL1       -0.0024
     21 C         139.7980  140.5658  168.9052 C.ar    1  UNL1       -0.0003
     22 C         141.0136  140.9041  169.7162 C.ar    1  UNL1        0.0294
     23 C         142.3814  140.6063  169.1772 C.ar    1  UNL1        0.1401
     24 F         143.5971  140.9447  169.9883 F       1  UNL1       -0.2042
     25 C         142.5336  139.9702  167.8274 C.ar    1  UNL1        0.0294
     26 C         141.3179  139.6319  167.0165 C.ar    1  UNL1       -0.0003
@<TRIPOS>BOND
     1    15    16    2
     2    16    17   am
     3    17    19    1
     4    19    20    1
     5    20    21   ar
     6    21    22   ar
     7    22    23   ar
     8    23    24    1
     9    23    25   ar
    10    25    26   ar
    11    16     1    1
    12     1     2   ar
    13     2     3   ar
    14     3     4   ar
    15     4     9    1
    16     9    10   ar
    17    10    11   ar
    18    11    12   ar
    19    12    13   ar
    20    13    14   ar
    21     4     5   ar
    22     5     6   ar
    23     6     7    1
    24    26    20   ar
    25     6     1   ar
    26    14     9   ar
    27    17    18    1
    28     7     8    1
@<TRIPOS>MOLECULE
*****
 26 28 0 0 0
SMALL
GASTEIGER

@<TRIPOS>ATOM
      1 C         141.6154  144.4672  161.6546 C.ar    1  UNL1        0.1253
      2 C         142.4066  144.0026  160.4680 C.ar    1  UNL1        0.1098
      3 N         142.0437  144.4771  159.0922 N.ar    1  UNL1       -0.2234
      4 C         140.8895  145.4163  158.9028 C.ar    1  UNL1        0.1831
      5 N         140.0983  145.8809  160.0894 N.ar    1  UNL1       -0.1910
      6 C         140.4612  145.4064  161.4654 C.ar    1  UNL1        0.2289
      7 O         139.6700  145.8710  162.6520 O.3     1  UNL1       -0.4918
      8 H         138.9490  146.4577  162.5337 H       1  UNL1        0.2938
      9 C         140.5266  145.8908  157.5269 C.ar    1  UNL1        0.1171
     10 C         141.2545  145.3516  156.3313 C.ar    1  UNL1        0.0223
     11 C         140.8916  145.8261  154.9555 C.ar    1  UNL1        0.0032
     12 C         139.8008  146.8399  154.7751 C.ar    1  UNL1        0.0207
     13 C         139.0729  147.3791  155.9707 C.ar    1  UNL1        0.0989
     14 N         139.4359  146.9045  157.3466 N.ar    1  UNL1       -0.2407
     15 O         140.8994  143.6412  164.0115 O.2     1  UNL1       -0.2699
     16 C         141.9783  143.9927  163.0305 C.2     1  UNL1        0.2522
     17 N         143.4202  143.8697  163.4255 N.am    1  UNL1       -0.2967
     18 H         144.1283  144.1004  162.7816 H       1  UNL1        0.1501
     19 C         143.7831  143.3952  164.8013 C.3     1  UNL1        0.1166
     20 C         143.7063  141.9349  165.1356 C.ar    1  UNL1       -0.0024
     21 C         142.8134  141.4656  166.2457 C.ar    1  UNL1       -0.0003
     22 C         142.7367  140.0053  166.5800 C.ar    1  UNL1        0.0294
     23 C         143.5529  139.0144  165.8041 C.ar    1  UNL1        0.1401
     24 F         143.4761  137.5541  166.1385 F       1  UNL1       -0.2042
     25 C         144.4458  139.4838  164.6940 C.ar    1  UNL1        0.0294
     26 C         144.5225  140.9440  164.3598 C.ar    1  UNL1       -0.0003
@<TRIPOS>BOND
     1    15    16    2
     2    16    17   am
     3    17    19    1
     4    19    20    1
     5    20    21   ar
     6    21    22   ar
     7    22    23   ar
     8    23    24    1
     9    23    25   ar
    10    25    26   ar
    11    16     1    1
    12     1     2   ar
    13     2     3   ar
    14     3     4   ar
    15     4     9    1
    16     9    10   ar
    17    10    11   ar
    18    11    12   ar
    19    12    13   ar
    20    13    14   ar
    21     4     5   ar
    22     5     6   ar
    23     6     7    1
    24    26    20   ar
    25     6     1   ar
    26    14     9   ar
    27    17    18    1
    28     7     8    1
