@<TRIPOS>MOLECULE
*****
 18 20 0 0 0
SMALL
GASTEIGER

@<TRIPOS>ATOM
      1 C         139.3177  140.8938  165.5026 C.ar    1  UNL1       -0.0208
      2 C         139.7919  142.3152  165.4339 C.ar    1  UNL1       -0.0042
      3 C         140.3082  142.9940  166.6678 C.ar    1  UNL1       -0.0003
      4 C         140.3502  142.2514  167.9705 C.ar    1  UNL1       -0.0000
      5 C         140.8664  142.9302  169.2045 C.ar    1  UNL1       -0.0000
      6 C         140.9084  142.1877  170.5070 C.ar    1  UNL1       -0.0000
      7 C         140.4341  140.7663  170.5757 C.ar    1  UNL1       -0.0000
      8 C         139.9179  140.0874  169.3418 C.ar    1  UNL1       -0.0000
      9 C         139.8759  140.8300  168.0392 C.ar    1  UNL1       -0.0003
     10 C         139.3596  140.1512  166.8051 C.ar    1  UNL1       -0.0042
     11 C         138.0350  138.1014  161.7574 C.2     1  UNL1       -0.0136
     12 C         138.8932  137.8507  162.9618 C.2     1  UNL1       -0.0289
     13 C         139.2343  138.7913  164.0794 C.3     1  UNL1        0.0315
     14 C         138.8014  140.2150  164.2685 C.3     1  UNL1        0.0424
     15 C         137.9205  141.0496  163.3869 C.3     1  UNL1        0.0735
     16 N         137.2549  140.6668  162.0983 N.3     1  UNL1       -0.2935
     17 C         137.3059  139.3547  161.3731 C.3     1  UNL1        0.0950
     18 H         137.5997  141.3468  161.4207 H       1  UNL1        0.1236
@<TRIPOS>BOND
     1    11    12    2
     2    12    13    1
     3    13    14    1
     4    14     1    1
     5     1     2   ar
     6     2     3   ar
     7     3     4   ar
     8     4     5   ar
     9     5     6   ar
    10     6     7   ar
    11     7     8   ar
    12     8     9   ar
    13     9    10   ar
    14    14    15    1
    15    15    16    1
    16    16    17    1
    17    17    11    1
    18    10     1   ar
    19     9     4   ar
    20    16    18    1
@<TRIPOS>MOLECULE
*****
 18 20 0 0 0
SMALL
GASTEIGER

@<TRIPOS>ATOM
      1 C         138.7800  139.8813  165.5401 C.ar    1  UNL1       -0.0208
      2 C         138.1142  138.9974  166.5527 C.ar    1  UNL1       -0.0042
      3 C         138.3613  139.2151  168.0161 C.ar    1  UNL1       -0.0003
      4 C         139.2741  140.3167  168.4669 C.ar    1  UNL1       -0.0000
      5 C         139.5212  140.5344  169.9303 C.ar    1  UNL1       -0.0000
      6 C         140.4339  141.6361  170.3810 C.ar    1  UNL1       -0.0000
      7 C         141.0997  142.5200  169.3683 C.ar    1  UNL1       -0.0000
      8 C         140.8526  142.3023  167.9050 C.ar    1  UNL1       -0.0000
      9 C         139.9398  141.2007  167.4542 C.ar    1  UNL1       -0.0003
     10 C         139.6927  140.9829  165.9908 C.ar    1  UNL1       -0.0042
     11 C         138.4157  138.5684  160.8912 C.2     1  UNL1       -0.0136
     12 C         139.1378  137.9678  162.0607 C.2     1  UNL1       -0.0289
     13 C         139.1900  138.4551  163.4784 C.3     1  UNL1        0.0315
     14 C         138.5329  139.6635  164.0766 C.3     1  UNL1        0.0424
     15 C         137.6613  140.6830  163.4050 C.3     1  UNL1        0.0735
     16 N         137.2316  140.7460  161.9693 N.3     1  UNL1       -0.2935
     17 C         137.5674  139.8048  160.8505 C.3     1  UNL1        0.0950
     18 H         137.5583  141.6560  161.6444 H       1  UNL1        0.1236
@<TRIPOS>BOND
     1    11    12    2
     2    12    13    1
     3    13    14    1
     4    14     1    1
     5     1     2   ar
     6     2     3   ar
     7     3     4   ar
     8     4     5   ar
     9     5     6   ar
    10     6     7   ar
    11     7     8   ar
    12     8     9   ar
    13     9    10   ar
    14    14    15    1
    15    15    16    1
    16    16    17    1
    17    17    11    1
    18    10     1   ar
    19     9     4   ar
    20    16    18    1
@<TRIPOS>MOLECULE
*****
 18 20 0 0 0
SMALL
GASTEIGER

@<TRIPOS>ATOM
      1 C         141.3901  139.2360  165.6045 C.ar    1  UNL1       -0.0208
      2 C         139.9010  139.3613  165.7348 C.ar    1  UNL1       -0.0042
      3 C         139.2928  139.7429  167.0518 C.ar    1  UNL1       -0.0003
      4 C         140.1738  139.9992  168.2386 C.ar    1  UNL1       -0.0000
      5 C         139.5656  140.3807  169.5556 C.ar    1  UNL1       -0.0000
      6 C         140.4465  140.6370  170.7422 C.ar    1  UNL1       -0.0000
      7 C         141.9356  140.5117  170.6119 C.ar    1  UNL1       -0.0000
      8 C         142.5438  140.1302  169.2949 C.ar    1  UNL1       -0.0000
      9 C         141.6628  139.8739  168.1083 C.ar    1  UNL1       -0.0003
     10 C         142.2710  139.4923  166.7912 C.ar    1  UNL1       -0.0042
     11 C         143.9084  138.4771  161.5363 C.2     1  UNL1       -0.0136
     12 C         144.1538  139.3473  162.7331 C.2     1  UNL1       -0.0289
     13 C         143.3037  139.5153  163.9575 C.3     1  UNL1        0.0315
     14 C         141.9982  138.8544  164.2874 C.3     1  UNL1        0.0424
     15 C         141.2203  137.8625  163.4744 C.3     1  UNL1        0.0735
     16 N         141.5558  137.2863  162.1308 N.3     1  UNL1       -0.2935
     17 C         142.7522  137.5599  161.2682 C.3     1  UNL1        0.0950
     18 H         140.7571  137.5259  161.5434 H       1  UNL1        0.1236
@<TRIPOS>BOND
     1    11    12    2
     2    12    13    1
     3    13    14    1
     4    14     1    1
     5     1     2   ar
     6     2     3   ar
     7     3     4   ar
     8     4     5   ar
     9     5     6   ar
    10     6     7   ar
    11     7     8   ar
    12     8     9   ar
    13     9    10   ar
    14    14    15    1
    15    15    16    1
    16    16    17    1
    17    17    11    1
    18    10     1   ar
    19     9     4   ar
    20    16    18    1
@<TRIPOS>MOLECULE
*****
 18 20 0 0 0
SMALL
GASTEIGER

@<TRIPOS>ATOM
      1 C         140.3197  141.5563  166.8115 C.ar    1  UNL1       -0.0208
      2 C         139.3718  140.5050  166.3151 C.ar    1  UNL1       -0.0042
      3 C         138.4672  140.7983  165.1551 C.ar    1  UNL1       -0.0003
      4 C         138.5105  142.1429  164.4915 C.ar    1  UNL1       -0.0000
      5 C         137.6059  142.4361  163.3315 C.ar    1  UNL1       -0.0000
      6 C         137.6491  143.7806  162.6679 C.ar    1  UNL1       -0.0000
      7 C         138.5970  144.8318  163.1643 C.ar    1  UNL1       -0.0000
      8 C         139.5016  144.5386  164.3243 C.ar    1  UNL1       -0.0000
      9 C         139.4583  143.1941  164.9879 C.ar    1  UNL1       -0.0003
     10 C         140.3630  142.9008  166.1479 C.ar    1  UNL1       -0.0042
     11 C         143.6052  141.2358  170.3571 C.2     1  UNL1       -0.0136
     12 C         143.3959  142.2326  169.2559 C.2     1  UNL1       -0.0289
     13 C         142.3363  142.2447  168.1942 C.3     1  UNL1        0.0315
     14 C         141.2243  141.2630  167.9716 C.3     1  UNL1        0.0424
     15 C         140.8973  140.0266  168.7555 C.3     1  UNL1        0.0735
     16 N         141.6014  139.4667  169.9558 N.3     1  UNL1       -0.2935
     17 C         142.8066  140.0049  170.6685 C.3     1  UNL1        0.0950
     18 H         141.8695  138.5227  169.6775 H       1  UNL1        0.1236
@<TRIPOS>BOND
     1    11    12    2
     2    12    13    1
     3    13    14    1
     4    14     1    1
     5     1     2   ar
     6     2     3   ar
     7     3     4   ar
     8     4     5   ar
     9     5     6   ar
    10     6     7   ar
    11     7     8   ar
    12     8     9   ar
    13     9    10   ar
    14    14    15    1
    15    15    16    1
    16    16    17    1
    17    17    11    1
    18    10     1   ar
    19     9     4   ar
    20    16    18    1
@<TRIPOS>MOLECULE
*****
 18 20 0 0 0
SMALL
GASTEIGER

@<TRIPOS>ATOM
      1 C         140.6432  140.1917  165.9893 C.ar    1  UNL1       -0.0208
      2 C         141.8942  139.4597  166.3755 C.ar    1  UNL1       -0.0042
      3 C         142.6924  139.9130  167.5618 C.ar    1  UNL1       -0.0003
      4 C         142.2396  141.0983  168.3620 C.ar    1  UNL1       -0.0000
      5 C         143.0378  141.5516  169.5483 C.ar    1  UNL1       -0.0000
      6 C         142.5850  142.7368  170.3483 C.ar    1  UNL1       -0.0000
      7 C         141.3340  143.4687  169.9621 C.ar    1  UNL1       -0.0000
      8 C         140.5358  143.0155  168.7758 C.ar    1  UNL1       -0.0000
      9 C         140.9886  141.8302  167.9757 C.ar    1  UNL1       -0.0003
     10 C         140.1904  141.3769  166.7893 C.ar    1  UNL1       -0.0042
     11 C         138.3769  138.0539  162.2795 C.2     1  UNL1       -0.0136
     12 C         139.3508  137.5461  163.3011 C.2     1  UNL1       -0.0289
     13 C         140.0042  138.2957  164.4242 C.3     1  UNL1        0.0315
     14 C         139.8450  139.7383  164.8029 C.3     1  UNL1        0.0424
     15 C         138.9932  140.7876  164.1522 C.3     1  UNL1        0.0735
     16 N         138.0901  140.6535  162.9621 N.3     1  UNL1       -0.2935
     17 C         137.8159  139.4368  162.1286 C.3     1  UNL1        0.0950
     18 H         138.4382  141.3450  162.2980 H       1  UNL1        0.1236
@<TRIPOS>BOND
     1    11    12    2
     2    12    13    1
     3    13    14    1
     4    14     1    1
     5     1     2   ar
     6     2     3   ar
     7     3     4   ar
     8     4     5   ar
     9     5     6   ar
    10     6     7   ar
    11     7     8   ar
    12     8     9   ar
    13     9    10   ar
    14    14    15    1
    15    15    16    1
    16    16    17    1
    17    17    11    1
    18    10     1   ar
    19     9     4   ar
    20    16    18    1
@<TRIPOS>MOLECULE
*****
 18 20 0 0 0
SMALL
GASTEIGER

@<TRIPOS>ATOM
      1 C         139.6335  140.2057  165.9802 C.ar    1  UNL1       -0.0208
      2 C         139.1758  141.5758  165.5761 C.ar    1  UNL1       -0.0042
      3 C         138.5200  141.7849  164.2434 C.ar    1  UNL1       -0.0003
      4 C         138.3218  140.6237  163.3147 C.ar    1  UNL1       -0.0000
      5 C         137.6660  140.8327  161.9819 C.ar    1  UNL1       -0.0000
      6 C         137.4678  139.6716  161.0533 C.ar    1  UNL1       -0.0000
      7 C         137.9255  138.3014  161.4573 C.ar    1  UNL1       -0.0000
      8 C         138.5813  138.0924  162.7900 C.ar    1  UNL1       -0.0000
      9 C         138.7795  139.2535  163.7187 C.ar    1  UNL1       -0.0003
     10 C         139.4353  139.0446  165.0515 C.ar    1  UNL1       -0.0042
     11 C         142.3850  139.4311  169.8914 C.2     1  UNL1       -0.0136
     12 C         142.6942  139.4601  168.4239 C.2     1  UNL1       -0.0289
     13 C         141.7615  139.7118  167.2763 C.3     1  UNL1        0.0315
     14 C         140.2893  139.9967  167.3130 C.3     1  UNL1        0.0424
     15 C         139.3861  140.1002  168.5061 C.3     1  UNL1        0.0735
     16 N         139.7320  139.9445  169.9573 N.3     1  UNL1       -0.2935
     17 C         141.0667  139.6467  170.5738 C.3     1  UNL1        0.0950
     18 H         139.1256  139.1927  170.2853 H       1  UNL1        0.1236
@<TRIPOS>BOND
     1    11    12    2
     2    12    13    1
     3    13    14    1
     4    14     1    1
     5     1     2   ar
     6     2     3   ar
     7     3     4   ar
     8     4     5   ar
     9     5     6   ar
    10     6     7   ar
    11     7     8   ar
    12     8     9   ar
    13     9    10   ar
    14    14    15    1
    15    15    16    1
    16    16    17    1
    17    17    11    1
    18    10     1   ar
    19     9     4   ar
    20    16    18    1
@<TRIPOS>MOLECULE
*****
 18 20 0 0 0
SMALL
GASTEIGER

@<TRIPOS>ATOM
      1 C         141.1350  142.6091  165.6592 C.ar    1  UNL1       -0.0208
      2 C         142.4566  141.9175  165.5015 C.ar    1  UNL1       -0.0042
      3 C         142.9276  140.9522  166.5485 C.ar    1  UNL1       -0.0003
      4 C         142.0770  140.6786  167.7534 C.ar    1  UNL1       -0.0000
      5 C         142.5480  139.7133  168.8005 C.ar    1  UNL1       -0.0000
      6 C         141.6974  139.4397  170.0052 C.ar    1  UNL1       -0.0000
      7 C         140.3758  140.1314  170.1630 C.ar    1  UNL1       -0.0000
      8 C         139.9048  141.0967  169.1159 C.ar    1  UNL1       -0.0000
      9 C         140.7554  141.3703  167.9111 C.ar    1  UNL1       -0.0003
     10 C         140.2844  142.3356  166.8640 C.ar    1  UNL1       -0.0042
     11 C         138.9290  145.4451  162.4097 C.2     1  UNL1       -0.0136
     12 C         138.4202  144.3863  163.3424 C.2     1  UNL1       -0.0289
     13 C         139.1923  143.5537  164.3226 C.3     1  UNL1        0.0315
     14 C         140.6640  143.5744  164.6121 C.3     1  UNL1        0.0424
     15 C         141.7269  144.4328  163.9929 C.3     1  UNL1        0.0735
     16 N         141.5808  145.4824  162.9314 N.3     1  UNL1       -0.2935
     17 C         140.3356  145.9329  162.2268 C.3     1  UNL1        0.0950
     18 H         142.2018  145.1764  162.1823 H       1  UNL1        0.1236
@<TRIPOS>BOND
     1    11    12    2
     2    12    13    1
     3    13    14    1
     4    14     1    1
     5     1     2   ar
     6     2     3   ar
     7     3     4   ar
     8     4     5   ar
     9     5     6   ar
    10     6     7   ar
    11     7     8   ar
    12     8     9   ar
    13     9    10   ar
    14    14    15    1
    15    15    16    1
    16    16    17    1
    17    17    11    1
    18    10     1   ar
    19     9     4   ar
    20    16    18    1
@<TRIPOS>MOLECULE
*****
 18 20 0 0 0
SMALL
GASTEIGER

@<TRIPOS>ATOM
      1 C         141.1582  142.6035  166.6669 C.ar    1  UNL1       -0.0208
      2 C         142.4935  142.5267  165.9878 C.ar    1  UNL1       -0.0042
      3 C         142.6959  143.1839  164.6547 C.ar    1  UNL1       -0.0003
      4 C         141.5629  143.9178  164.0006 C.ar    1  UNL1       -0.0000
      5 C         141.7653  144.5749  162.6675 C.ar    1  UNL1       -0.0000
      6 C         140.6323  145.3088  162.0134 C.ar    1  UNL1       -0.0000
      7 C         139.2970  145.3855  162.6925 C.ar    1  UNL1       -0.0000
      8 C         139.0947  144.7283  164.0256 C.ar    1  UNL1       -0.0000
      9 C         140.2276  143.9945  164.6796 C.ar    1  UNL1       -0.0003
     10 C         140.0253  143.3373  166.0128 C.ar    1  UNL1       -0.0042
     11 C         140.9627  141.0148  171.2392 C.2     1  UNL1       -0.0136
     12 C         141.6822  142.1623  170.5945 C.2     1  UNL1       -0.0289
     13 C         141.6792  142.5769  169.1529 C.3     1  UNL1        0.0315
     14 C         140.9559  141.9463  168.0000 C.3     1  UNL1        0.0424
     15 C         140.0570  140.7454  168.0039 C.3     1  UNL1        0.0735
     16 N         139.6594  139.8786  169.1616 N.3     1  UNL1       -0.2935
     17 C         140.0625  139.9985  170.6015 C.3     1  UNL1        0.0950
     18 H         139.9538  138.9402  168.8912 H       1  UNL1        0.1236
@<TRIPOS>BOND
     1    11    12    2
     2    12    13    1
     3    13    14    1
     4    14     1    1
     5     1     2   ar
     6     2     3   ar
     7     3     4   ar
     8     4     5   ar
     9     5     6   ar
    10     6     7   ar
    11     7     8   ar
    12     8     9   ar
    13     9    10   ar
    14    14    15    1
    15    15    16    1
    16    16    17    1
    17    17    11    1
    18    10     1   ar
    19     9     4   ar
    20    16    18    1
@<TRIPOS>MOLECULE
*****
 18 20 0 0 0
SMALL
GASTEIGER

@<TRIPOS>ATOM
      1 C         140.1836  139.7066  166.9891 C.ar    1  UNL1       -0.0208
      2 C         138.7347  139.3707  166.7945 C.ar    1  UNL1       -0.0042
      3 C         138.2651  138.8044  165.4873 C.ar    1  UNL1       -0.0003
      4 C         139.2445  138.5740  164.3747 C.ar    1  UNL1       -0.0000
      5 C         138.7749  138.0077  163.0675 C.ar    1  UNL1       -0.0000
      6 C         139.7542  137.7773  161.9549 C.ar    1  UNL1       -0.0000
      7 C         141.2031  138.1133  162.1496 C.ar    1  UNL1       -0.0000
      8 C         141.6727  138.6795  163.4568 C.ar    1  UNL1       -0.0000
      9 C         140.6934  138.9099  164.5693 C.ar    1  UNL1       -0.0003
     10 C         141.1629  139.4762  165.8766 C.ar    1  UNL1       -0.0042
     11 C         142.3938  141.4061  170.9508 C.2     1  UNL1       -0.0136
     12 C         142.9147  140.8295  169.6679 C.2     1  UNL1       -0.0289
     13 C         142.1401  140.3252  168.4865 C.3     1  UNL1        0.0315
     14 C         140.6531  140.2729  168.2964 C.3     1  UNL1        0.0424
     15 C         139.5736  140.7121  169.2407 C.3     1  UNL1        0.0735
     16 N         139.7143  141.3120  170.6082 N.3     1  UNL1       -0.2935
     17 C         140.9694  141.6209  171.3693 C.3     1  UNL1        0.0950
     18 H         139.1939  140.6817  171.2185 H       1  UNL1        0.1236
@<TRIPOS>BOND
     1    11    12    2
     2    12    13    1
     3    13    14    1
     4    14     1    1
     5     1     2   ar
     6     2     3   ar
     7     3     4   ar
     8     4     5   ar
     9     5     6   ar
    10     6     7   ar
    11     7     8   ar
    12     8     9   ar
    13     9    10   ar
    14    14    15    1
    15    15    16    1
    16    16    17    1
    17    17    11    1
    18    10     1   ar
    19     9     4   ar
    20    16    18    1
