@<TRIPOS>MOLECULE
*****
 37 41 0 0 0
SMALL
GASTEIGER

@<TRIPOS>ATOM
      1 C         142.4366  138.6941  163.2591 C.3     1  UNL1        0.1565
      2 O         141.8577  137.4073  162.7500 O.3     1  UNL1       -0.3781
      3 C         142.6716  139.8804  164.1465 C.3     1  UNL1        0.0372
      4 C         143.6955  140.9091  163.7679 C.3     1  UNL1        0.0186
      5 C         144.4844  140.7515  162.5018 C.3     1  UNL1        0.0544
      6 C         144.2494  139.5652  161.6145 C.3     1  UNL1        0.0186
      7 C         143.2255  138.5365  161.9931 C.3     1  UNL1        0.0372
      8 H         141.1823  137.0892  163.3693 H       1  UNL1        0.2109
      9 N         140.5904  139.5081  164.8960 N.am    1  UNL1       -0.2820
     10 C         141.4467  138.4049  164.3483 C.2     1  UNL1        0.2502
     11 O         141.3129  137.0125  164.8899 O.2     1  UNL1       -0.2723
     12 H         140.6782  140.4220  164.5406 H       1  UNL1        0.1549
     13 C         140.8803  141.6700  168.8320 C.ar    1  UNL1        0.1389
     14 C         139.8904  141.3807  169.9212 C.ar    1  UNL1        0.0384
     15 C         138.8039  140.3709  169.6985 C.ar    1  UNL1        0.0223
     16 C         138.7073  139.6503  168.3865 C.ar    1  UNL1        0.0827
     17 N         137.6207  138.6404  168.1637 N.ar    1  UNL1       -0.2438
     18 C         137.5241  137.9198  166.8517 C.ar    1  UNL1        0.1001
     19 C         138.5140  138.2090  165.7625 C.ar    1  UNL1        0.0353
     20 C         139.6005  139.2189  165.9852 C.ar    1  UNL1        0.0534
     21 C         139.6971  139.9395  167.2973 C.ar    1  UNL1        0.0342
     22 C         140.7837  140.9494  167.5201 C.ar    1  UNL1        0.0396
     23 C         143.3857  142.2276  169.2346 C.3     1  UNL1        0.2525
     24 O         141.9668  142.6798  169.0548 O.3     1  UNL1       -0.4714
     25 N         145.5083  141.7802  162.1232 N.3     1  UNL1       -0.2935
     26 H         145.9688  141.4404  161.2789 H       1  UNL1        0.1236
     27 C         145.0859  143.1928  161.8474 C.3     1  UNL1        0.1152
     28 C         143.6285  143.5349  161.7523 C.ar    1  UNL1        0.0782
     29 C         142.8542  143.8696  162.9925 C.ar    1  UNL1        0.0562
     30 C         141.3968  144.2118  162.8974 C.ar    1  UNL1        0.1752
     31 C         140.7138  144.2191  161.5618 C.ar    1  UNL1        0.1914
     32 C         141.4881  143.8843  160.3216 C.ar    1  UNL1        0.1384
     33 N         142.9456  143.5422  160.4168 N.ar    1  UNL1       -0.2434
     34 O         139.2564  144.5612  161.4667 O.3     1  UNL1       -0.4668
     35 C         138.4821  144.8960  162.7069 C.3     1  UNL1        0.2527
     36 C         139.1651  144.8887  164.0425 C.3     1  UNL1        0.2526
     37 O         140.6224  144.5465  164.1376 O.3     1  UNL1       -0.4683
@<TRIPOS>BOND
     1    23    24    1
     2    24    13    1
     3    13    14   ar
     4    14    15   ar
     5    15    16   ar
     6    16    17   ar
     7    17    18   ar
     8    18    19   ar
     9    19    20   ar
    10    20     9    1
    11     9    10   am
    12    10    11    2
    13    10     1    1
    14     1     2    1
    15     1     3    1
    16     3     4    1
    17     4     5    1
    18     5    25    1
    19    25    27    1
    20    27    28    1
    21    28    29   ar
    22    29    30   ar
    23    30    31   ar
    24    31    32   ar
    25    32    33   ar
    26    31    34    1
    27    34    35    1
    28    35    36    1
    29    36    37    1
    30     5     6    1
    31     6     7    1
    32    20    21   ar
    33    21    22   ar
    34    22    13   ar
    35    21    16   ar
    36     7     1    1
    37    33    28   ar
    38    37    30    1
    39     9    12    1
    40     2     8    1
    41    25    26    1
@<TRIPOS>MOLECULE
*****
 37 41 0 0 0
SMALL
GASTEIGER

@<TRIPOS>ATOM
      1 C         143.1636  138.9687  160.7304 C.3     1  UNL1        0.1565
      2 O         142.8975  137.6060  161.2981 O.3     1  UNL1       -0.3781
      3 C         143.1548  140.1228  159.7723 C.3     1  UNL1        0.0372
      4 C         143.8449  141.4041  160.1354 C.3     1  UNL1        0.0186
      5 C         144.5438  141.5314  161.4566 C.3     1  UNL1        0.0544
      6 C         144.5525  140.3773  162.4147 C.3     1  UNL1        0.0186
      7 C         143.8624  139.0959  162.0516 C.3     1  UNL1        0.0372
      8 H         142.3789  137.0870  160.6636 H       1  UNL1        0.2109
      9 N         143.0376  138.0735  158.2946 N.am    1  UNL1       -0.2820
     10 C         142.3724  138.3682  159.6064 C.2     1  UNL1        0.2502
     11 O         140.9159  138.0624  159.7941 O.2     1  UNL1       -0.2723
     12 H         143.9935  138.2742  158.1714 H       1  UNL1        0.1549
     13 C         143.5695  133.7321  157.2370 C.ar    1  UNL1        0.1389
     14 C         142.7783  133.1316  156.1130 C.ar    1  UNL1        0.0384
     15 C         141.8098  133.9783  155.3415 C.ar    1  UNL1        0.0223
     16 C         141.6325  135.4254  155.6940 C.ar    1  UNL1        0.0827
     17 N         140.6640  136.2721  154.9226 N.ar    1  UNL1       -0.2438
     18 C         140.4867  137.7192  155.2751 C.ar    1  UNL1        0.1001
     19 C         141.2779  138.3197  156.3992 C.ar    1  UNL1        0.0353
     20 C         142.2464  137.4731  157.1706 C.ar    1  UNL1        0.0534
     21 C         142.4237  136.0259  156.8180 C.ar    1  UNL1        0.0342
     22 C         143.3922  135.1792  157.5895 C.ar    1  UNL1        0.0396
     23 C         145.2049  131.7163  157.3464 C.3     1  UNL1        0.2525
     24 O         144.5380  132.8854  158.0084 O.3     1  UNL1       -0.4714
     25 N         145.2339  142.8128  161.8197 N.3     1  UNL1       -0.2935
     26 H         145.5042  143.2600  160.9438 H       1  UNL1        0.1236
     27 C         144.5136  143.8488  162.6306 C.3     1  UNL1        0.1152
     28 C         143.0321  144.0256  162.4764 C.ar    1  UNL1        0.0782
     29 C         142.1133  143.6801  163.6106 C.ar    1  UNL1        0.0562
     30 C         140.6318  143.8569  163.4563 C.ar    1  UNL1        0.1752
     31 C         140.0691  144.3793  162.1676 C.ar    1  UNL1        0.1914
     32 C         140.9877  144.7247  161.0334 C.ar    1  UNL1        0.1384
     33 N         142.4693  144.5479  161.1877 N.ar    1  UNL1       -0.2434
     34 O         138.5875  144.5560  162.0133 O.3     1  UNL1       -0.4668
     35 C         137.6688  144.2106  163.1475 C.3     1  UNL1        0.2527
     36 C         138.2315  143.6882  164.4362 C.3     1  UNL1        0.2526
     37 O         139.7130  143.5115  164.5905 O.3     1  UNL1       -0.4683
@<TRIPOS>BOND
     1    23    24    1
     2    24    13    1
     3    13    14   ar
     4    14    15   ar
     5    15    16   ar
     6    16    17   ar
     7    17    18   ar
     8    18    19   ar
     9    19    20   ar
    10    20     9    1
    11     9    10   am
    12    10    11    2
    13    10     1    1
    14     1     2    1
    15     1     3    1
    16     3     4    1
    17     4     5    1
    18     5    25    1
    19    25    27    1
    20    27    28    1
    21    28    29   ar
    22    29    30   ar
    23    30    31   ar
    24    31    32   ar
    25    32    33   ar
    26    31    34    1
    27    34    35    1
    28    35    36    1
    29    36    37    1
    30     5     6    1
    31     6     7    1
    32    20    21   ar
    33    21    22   ar
    34    22    13   ar
    35    21    16   ar
    36     7     1    1
    37    33    28   ar
    38    37    30    1
    39     9    12    1
    40     2     8    1
    41    25    26    1
@<TRIPOS>MOLECULE
*****
 37 41 0 0 0
SMALL
GASTEIGER

@<TRIPOS>ATOM
      1 C         143.4265  143.8520  162.1677 C.3     1  UNL1        0.1565
      2 O         144.9064  143.9945  162.3673 O.3     1  UNL1       -0.3781
      3 C         142.1194  143.3799  161.6035 C.3     1  UNL1        0.0372
      4 C         140.8291  143.9066  162.1582 C.3     1  UNL1        0.0186
      5 C         140.8460  144.9055  163.2771 C.3     1  UNL1        0.0544
      6 C         142.1532  145.3777  163.8413 C.3     1  UNL1        0.0186
      7 C         143.4435  144.8510  163.2866 C.3     1  UNL1        0.0372
      8 H         145.3740  143.4221  161.7392 H       1  UNL1        0.2109
      9 N         143.3730  142.9701  159.7244 N.am    1  UNL1       -0.2820
     10 C         143.9235  142.9026  161.1182 C.2     1  UNL1        0.2502
     11 O         144.9710  141.8856  161.4623 O.2     1  UNL1       -0.2723
     12 H         142.6855  143.6376  159.4985 H       1  UNL1        0.1549
     13 C         141.2308  139.0765  159.0167 C.ar    1  UNL1        0.1389
     14 C         141.7277  138.1271  157.9672 C.ar    1  UNL1        0.0384
     15 C         142.9388  138.4755  157.1536 C.ar    1  UNL1        0.0223
     16 C         143.6529  139.7733  157.3895 C.ar    1  UNL1        0.0827
     17 N         144.8640  140.1217  156.5759 N.ar    1  UNL1       -0.2438
     18 C         145.5780  141.4195  156.8118 C.ar    1  UNL1        0.1001
     19 C         145.0811  142.3690  157.8613 C.ar    1  UNL1        0.0353
     20 C         143.8700  142.0207  158.6749 C.ar    1  UNL1        0.0534
     21 C         143.1559  140.7227  158.4390 C.ar    1  UNL1        0.0342
     22 C         141.9448  140.3744  159.2526 C.ar    1  UNL1        0.0396
     23 C         138.7553  139.5189  159.6695 C.3     1  UNL1        0.2525
     24 O         140.0197  138.7282  159.8303 O.3     1  UNL1       -0.4714
     25 N         139.5557  145.4323  163.8318 N.3     1  UNL1       -0.2935
     26 H         139.0095  145.7680  163.0385 H       1  UNL1        0.1236
     27 C         138.6573  144.5310  164.6258 C.3     1  UNL1        0.1152
     28 C         138.5331  143.0822  164.2579 C.ar    1  UNL1        0.0782
     29 C         139.3590  142.0535  164.9717 C.ar    1  UNL1        0.0562
     30 C         139.2348  140.6047  164.6037 C.ar    1  UNL1        0.1752
     31 C         138.2845  140.1846  163.5217 C.ar    1  UNL1        0.1914
     32 C         137.4586  141.2132  162.8079 C.ar    1  UNL1        0.1384
     33 N         137.5828  142.6621  163.1759 N.ar    1  UNL1       -0.2434
     34 O         138.1603  138.7357  163.1538 O.3     1  UNL1       -0.4668
     35 C         138.9862  137.7071  163.8676 C.3     1  UNL1        0.2527
     36 C         139.9365  138.1272  164.9495 C.3     1  UNL1        0.2526
     37 O         140.0607  139.5760  165.3175 O.3     1  UNL1       -0.4683
@<TRIPOS>BOND
     1    23    24    1
     2    24    13    1
     3    13    14   ar
     4    14    15   ar
     5    15    16   ar
     6    16    17   ar
     7    17    18   ar
     8    18    19   ar
     9    19    20   ar
    10    20     9    1
    11     9    10   am
    12    10    11    2
    13    10     1    1
    14     1     2    1
    15     1     3    1
    16     3     4    1
    17     4     5    1
    18     5    25    1
    19    25    27    1
    20    27    28    1
    21    28    29   ar
    22    29    30   ar
    23    30    31   ar
    24    31    32   ar
    25    32    33   ar
    26    31    34    1
    27    34    35    1
    28    35    36    1
    29    36    37    1
    30     5     6    1
    31     6     7    1
    32    20    21   ar
    33    21    22   ar
    34    22    13   ar
    35    21    16   ar
    36     7     1    1
    37    33    28   ar
    38    37    30    1
    39     9    12    1
    40     2     8    1
    41    25    26    1
@<TRIPOS>MOLECULE
*****
 37 41 0 0 0
SMALL
GASTEIGER

@<TRIPOS>ATOM
      1 C         141.8632  144.6770  161.5308 C.3     1  UNL1        0.1565
      2 O         140.9829  145.7550  162.0905 O.3     1  UNL1       -0.3781
      3 C         142.4133  143.6621  160.5731 C.3     1  UNL1        0.0372
      4 C         143.6081  142.8400  160.9560 C.3     1  UNL1        0.0186
      5 C         144.2527  143.0328  162.2967 C.3     1  UNL1        0.0544
      6 C         143.7026  144.0477  163.2544 C.3     1  UNL1        0.0186
      7 C         142.5078  144.8698  162.8715 C.3     1  UNL1        0.0372
      8 H         140.2995  145.9838  161.4413 H       1  UNL1        0.2109
      9 N         141.1976  144.2067  159.0639 N.am    1  UNL1       -0.2820
     10 C         140.9129  144.8585  160.3846 C.2     1  UNL1        0.2502
     11 O         139.6779  145.6918  160.5589 O.2     1  UNL1       -0.2723
     12 H         142.0081  143.6597  158.9494 H       1  UNL1        0.1549
     13 C         138.1123  141.0529  158.1779 C.ar    1  UNL1        0.1389
     14 C         137.1621  141.2344  157.0317 C.ar    1  UNL1        0.0384
     15 C         137.2402  142.4672  156.1807 C.ar    1  UNL1        0.0223
     16 C         138.2686  143.5184  156.4760 C.ar    1  UNL1        0.0827
     17 N         138.3467  144.7512  155.6250 N.ar    1  UNL1       -0.2438
     18 C         139.3751  145.8024  155.9203 C.ar    1  UNL1        0.1001
     19 C         140.3254  145.6209  157.0666 C.ar    1  UNL1        0.0353
     20 C         140.2473  144.3882  157.9176 C.ar    1  UNL1        0.0534
     21 C         139.2188  143.3369  157.6222 C.ar    1  UNL1        0.0342
     22 C         139.1407  142.1041  158.4732 C.ar    1  UNL1        0.0396
     23 C         137.6562  139.9306  160.4763 C.3     1  UNL1        0.2525
     24 O         138.0342  139.8201  159.0289 O.3     1  UNL1       -0.4714
     25 N         145.4475  142.2107  162.6796 N.3     1  UNL1       -0.2935
     26 H         146.0528  142.8130  163.2375 H       1  UNL1        0.1236
     27 C         145.2661  140.9404  163.4562 C.3     1  UNL1        0.1152
     28 C         144.0900  140.0522  163.1773 C.ar    1  UNL1        0.0782
     29 C         142.8004  140.2618  163.9140 C.ar    1  UNL1        0.0562
     30 C         141.6242  139.3736  163.6352 C.ar    1  UNL1        0.1752
     31 C         141.7378  138.2757  162.6194 C.ar    1  UNL1        0.1914
     32 C         143.0274  138.0660  161.8827 C.ar    1  UNL1        0.1384
     33 N         144.2036  138.9542  162.1616 N.ar    1  UNL1       -0.2434
     34 O         140.5616  137.3874  162.3405 O.3     1  UNL1       -0.4668
     35 C         139.2721  137.5971  163.0773 C.3     1  UNL1        0.2527
     36 C         139.1585  138.6951  164.0930 C.3     1  UNL1        0.2526
     37 O         140.3346  139.5833  164.3719 O.3     1  UNL1       -0.4683
@<TRIPOS>BOND
     1    23    24    1
     2    24    13    1
     3    13    14   ar
     4    14    15   ar
     5    15    16   ar
     6    16    17   ar
     7    17    18   ar
     8    18    19   ar
     9    19    20   ar
    10    20     9    1
    11     9    10   am
    12    10    11    2
    13    10     1    1
    14     1     2    1
    15     1     3    1
    16     3     4    1
    17     4     5    1
    18     5    25    1
    19    25    27    1
    20    27    28    1
    21    28    29   ar
    22    29    30   ar
    23    30    31   ar
    24    31    32   ar
    25    32    33   ar
    26    31    34    1
    27    34    35    1
    28    35    36    1
    29    36    37    1
    30     5     6    1
    31     6     7    1
    32    20    21   ar
    33    21    22   ar
    34    22    13   ar
    35    21    16   ar
    36     7     1    1
    37    33    28   ar
    38    37    30    1
    39     9    12    1
    40     2     8    1
    41    25    26    1
@<TRIPOS>MOLECULE
*****
 37 41 0 0 0
SMALL
GASTEIGER

@<TRIPOS>ATOM
      1 C         143.7259  139.8476  165.0062 C.3     1  UNL1        0.1565
      2 O         143.3121  138.4640  165.4119 O.3     1  UNL1       -0.3781
      3 C         144.0002  141.3196  165.0946 C.3     1  UNL1        0.0372
      4 C         144.5324  142.0563  163.9013 C.3     1  UNL1        0.0186
      5 C         144.7902  141.3210  162.6196 C.3     1  UNL1        0.0544
      6 C         144.5159  139.8490  162.5312 C.3     1  UNL1        0.0186
      7 C         143.9838  139.1122  163.7245 C.3     1  UNL1        0.0372
      8 H         143.0188  138.4723  166.3365 H       1  UNL1        0.2109
      9 N         142.8147  141.4539  166.8337 N.am    1  UNL1       -0.2820
     10 C         143.3243  140.1024  166.4288 C.2     1  UNL1        0.2502
     11 O         143.4324  139.0059  167.4466 O.2     1  UNL1       -0.2723
     12 H         142.7437  142.1736  166.1657 H       1  UNL1        0.1549
     13 C         138.9478  139.7808  168.4142 C.ar    1  UNL1        0.1389
     14 C         138.5463  140.0357  169.8368 C.ar    1  UNL1        0.0384
     15 C         139.4337  140.8482  170.7325 C.ar    1  UNL1        0.0223
     16 C         140.7226  141.4059  170.2057 C.ar    1  UNL1        0.0827
     17 N         141.6100  142.2184  171.1014 N.ar    1  UNL1       -0.2438
     18 C         142.8989  142.7761  170.5746 C.ar    1  UNL1        0.1001
     19 C         143.3005  142.5213  169.1520 C.ar    1  UNL1        0.0353
     20 C         142.4131  141.7088  168.2562 C.ar    1  UNL1        0.0534
     21 C         141.1241  141.1511  168.7831 C.ar    1  UNL1        0.0342
     22 C         140.2368  140.3385  167.8874 C.ar    1  UNL1        0.0396
     23 C         138.4152  138.7910  166.0719 C.3     1  UNL1        0.2525
     24 O         138.0605  138.9683  167.5185 O.3     1  UNL1       -0.4714
     25 N         145.3224  142.0577  161.4262 N.3     1  UNL1       -0.2935
     26 H         145.8753  141.3891  160.8899 H       1  UNL1        0.1236
     27 C         144.3748  142.7078  160.4623 C.3     1  UNL1        0.1152
     28 C         142.9020  142.7133  160.7465 C.ar    1  UNL1        0.0782
     29 C         142.3160  143.7586  161.6486 C.ar    1  UNL1        0.0562
     30 C         140.8433  143.7641  161.9328 C.ar    1  UNL1        0.1752
     31 C         139.9564  142.7239  161.3150 C.ar    1  UNL1        0.1914
     32 C         140.5423  141.6785  160.4130 C.ar    1  UNL1        0.1384
     33 N         142.0152  141.6731  160.1287 N.ar    1  UNL1       -0.2434
     34 O         138.4835  142.7294  161.5993 O.3     1  UNL1       -0.4668
     35 C         137.8976  143.7747  162.5013 C.3     1  UNL1        0.2527
     36 C         138.7845  144.8149  163.1191 C.3     1  UNL1        0.2526
     37 O         140.2573  144.8094  162.8349 O.3     1  UNL1       -0.4683
@<TRIPOS>BOND
     1    23    24    1
     2    24    13    1
     3    13    14   ar
     4    14    15   ar
     5    15    16   ar
     6    16    17   ar
     7    17    18   ar
     8    18    19   ar
     9    19    20   ar
    10    20     9    1
    11     9    10   am
    12    10    11    2
    13    10     1    1
    14     1     2    1
    15     1     3    1
    16     3     4    1
    17     4     5    1
    18     5    25    1
    19    25    27    1
    20    27    28    1
    21    28    29   ar
    22    29    30   ar
    23    30    31   ar
    24    31    32   ar
    25    32    33   ar
    26    31    34    1
    27    34    35    1
    28    35    36    1
    29    36    37    1
    30     5     6    1
    31     6     7    1
    32    20    21   ar
    33    21    22   ar
    34    22    13   ar
    35    21    16   ar
    36     7     1    1
    37    33    28   ar
    38    37    30    1
    39     9    12    1
    40     2     8    1
    41    25    26    1
@<TRIPOS>MOLECULE
*****
 37 41 0 0 0
SMALL
GASTEIGER

@<TRIPOS>ATOM
      1 C         140.0442  138.4453  161.2920 C.3     1  UNL1        0.1565
      2 O         138.5947  138.7803  161.4843 O.3     1  UNL1       -0.3781
      3 C         141.4666  138.1001  161.6198 C.3     1  UNL1        0.0372
      4 C         142.4633  137.9005  160.5167 C.3     1  UNL1        0.0186
      5 C         142.0374  138.0461  159.0858 C.3     1  UNL1        0.0544
      6 C         140.6150  138.3913  158.7579 C.3     1  UNL1        0.0186
      7 C         139.6184  138.5909  159.8610 C.3     1  UNL1        0.0372
      8 H         138.3901  138.7984  162.4323 H       1  UNL1        0.2109
      9 N         139.3565  139.5681  163.5317 N.am    1  UNL1       -0.2820
     10 C         139.9666  138.4160  162.7896 C.2     1  UNL1        0.2502
     11 O         140.4992  137.2348  163.5453 O.2     1  UNL1       -0.2723
     12 H         139.0069  140.3434  163.0358 H       1  UNL1        0.1549
     13 C         142.7608  141.1815  165.9929 C.ar    1  UNL1        0.1389
     14 C         142.6832  141.1523  167.4905 C.ar    1  UNL1        0.0384
     15 C         141.4709  140.5852  168.1679 C.ar    1  UNL1        0.0223
     16 C         140.3362  140.0474  167.3475 C.ar    1  UNL1        0.0827
     17 N         139.1239  139.4804  168.0248 N.ar    1  UNL1       -0.2438
     18 C         137.9891  138.9426  167.2045 C.ar    1  UNL1        0.1001
     19 C         138.0666  138.9718  165.7067 C.ar    1  UNL1        0.0353
     20 C         139.2789  139.5388  165.0294 C.ar    1  UNL1        0.0534
     21 C         140.4137  140.0767  165.8498 C.ar    1  UNL1        0.0342
     22 C         141.6260  140.6437  165.1725 C.ar    1  UNL1        0.0396
     23 C         144.0153  143.2019  164.9467 C.3     1  UNL1        0.2525
     24 O         143.9731  141.7485  165.3155 O.3     1  UNL1       -0.4714
     25 N         143.0341  137.8465  157.9827 N.3     1  UNL1       -0.2935
     26 H         143.7797  137.2626  158.3616 H       1  UNL1        0.1236
     27 C         142.6062  137.2175  156.6900 C.3     1  UNL1        0.1152
     28 C         142.5927  135.7240  156.5507 C.ar    1  UNL1        0.0782
     29 C         143.5910  134.8919  157.2996 C.ar    1  UNL1        0.0562
     30 C         143.5776  133.3984  157.1603 C.ar    1  UNL1        0.1752
     31 C         142.5658  132.7371  156.2720 C.ar    1  UNL1        0.1914
     32 C         141.5676  133.5692  155.5230 C.ar    1  UNL1        0.1384
     33 N         141.5810  135.0628  155.6623 N.ar    1  UNL1       -0.2434
     34 O         142.5524  131.2436  156.1327 O.3     1  UNL1       -0.4668
     35 C         143.5506  130.4115  156.8817 C.3     1  UNL1        0.2527
     36 C         144.5624  131.0728  157.7700 C.3     1  UNL1        0.2526
     37 O         144.5758  132.5662  157.9093 O.3     1  UNL1       -0.4683
@<TRIPOS>BOND
     1    23    24    1
     2    24    13    1
     3    13    14   ar
     4    14    15   ar
     5    15    16   ar
     6    16    17   ar
     7    17    18   ar
     8    18    19   ar
     9    19    20   ar
    10    20     9    1
    11     9    10   am
    12    10    11    2
    13    10     1    1
    14     1     2    1
    15     1     3    1
    16     3     4    1
    17     4     5    1
    18     5    25    1
    19    25    27    1
    20    27    28    1
    21    28    29   ar
    22    29    30   ar
    23    30    31   ar
    24    31    32   ar
    25    32    33   ar
    26    31    34    1
    27    34    35    1
    28    35    36    1
    29    36    37    1
    30     5     6    1
    31     6     7    1
    32    20    21   ar
    33    21    22   ar
    34    22    13   ar
    35    21    16   ar
    36     7     1    1
    37    33    28   ar
    38    37    30    1
    39     9    12    1
    40     2     8    1
    41    25    26    1
@<TRIPOS>MOLECULE
*****
 37 41 0 0 0
SMALL
GASTEIGER

@<TRIPOS>ATOM
      1 C         139.1988  143.0770  158.7759 C.3     1  UNL1        0.1565
      2 O         140.0531  144.3093  158.7342 O.3     1  UNL1       -0.3781
      3 C         138.4570  141.8941  159.3238 C.3     1  UNL1        0.0372
      4 C         137.6881  140.9972  158.3996 C.3     1  UNL1        0.0186
      5 C         137.6609  141.2833  156.9273 C.3     1  UNL1        0.0544
      6 C         138.4027  142.4662  156.3794 C.3     1  UNL1        0.0186
      7 C         139.1717  143.3631  157.3037 C.3     1  UNL1        0.0372
      8 H         140.3459  144.5303  159.6322 H       1  UNL1        0.2109
      9 N         138.4181  143.2435  161.2483 N.am    1  UNL1       -0.2820
     10 C         139.5226  143.2189  160.2336 C.2     1  UNL1        0.2502
     11 O         140.9509  143.3360  160.6767 O.2     1  UNL1       -0.2723
     12 H         137.4807  143.1666  160.9575 H       1  UNL1        0.1549
     13 C         138.7227  139.5858  163.8518 C.ar    1  UNL1        0.1389
     14 C         139.0465  139.7276  165.3095 C.ar    1  UNL1        0.0384
     15 C         139.2688  141.0887  165.8994 C.ar    1  UNL1        0.0223
     16 C         139.1673  142.3079  165.0316 C.ar    1  UNL1        0.0827
     17 N         139.3896  143.6690  165.6216 N.ar    1  UNL1       -0.2438
     18 C         139.2880  144.8883  164.7538 C.ar    1  UNL1        0.1001
     19 C         138.9642  144.7465  163.2960 C.ar    1  UNL1        0.0353
     20 C         138.7419  143.3854  162.7061 C.ar    1  UNL1        0.0534
     21 C         138.8435  142.1661  163.5739 C.ar    1  UNL1        0.0342
     22 C         138.6212  140.8050  162.9840 C.ar    1  UNL1        0.0396
     23 C         138.2198  138.0795  161.7955 C.3     1  UNL1        0.2525
     24 O         138.5005  138.2247  163.2618 O.3     1  UNL1       -0.4714
     25 N         136.8920  140.3864  156.0031 N.3     1  UNL1       -0.2935
     26 H         136.6969  139.5288  156.5197 H       1  UNL1        0.1236
     27 C         135.5883  140.8481  155.4224 C.3     1  UNL1        0.1152
     28 C         134.2952  140.4415  156.0645 C.ar    1  UNL1        0.0782
     29 C         132.9932  140.9363  155.5080 C.ar    1  UNL1        0.0562
     30 C         131.7000  140.5297  156.1502 C.ar    1  UNL1        0.1752
     31 C         131.7090  139.6281  157.3490 C.ar    1  UNL1        0.1914
     32 C         133.0109  139.1332  157.9055 C.ar    1  UNL1        0.1384
     33 N         134.3042  139.5399  157.2633 N.ar    1  UNL1       -0.2434
     34 O         130.4157  139.2214  157.9911 O.3     1  UNL1       -0.4668
     35 C         129.1138  139.7163  157.4346 C.3     1  UNL1        0.2527
     36 C         129.1049  140.6179  156.2358 C.3     1  UNL1        0.2526
     37 O         130.3980  141.0246  155.5936 O.3     1  UNL1       -0.4683
@<TRIPOS>BOND
     1    23    24    1
     2    24    13    1
     3    13    14   ar
     4    14    15   ar
     5    15    16   ar
     6    16    17   ar
     7    17    18   ar
     8    18    19   ar
     9    19    20   ar
    10    20     9    1
    11     9    10   am
    12    10    11    2
    13    10     1    1
    14     1     2    1
    15     1     3    1
    16     3     4    1
    17     4     5    1
    18     5    25    1
    19    25    27    1
    20    27    28    1
    21    28    29   ar
    22    29    30   ar
    23    30    31   ar
    24    31    32   ar
    25    32    33   ar
    26    31    34    1
    27    34    35    1
    28    35    36    1
    29    36    37    1
    30     5     6    1
    31     6     7    1
    32    20    21   ar
    33    21    22   ar
    34    22    13   ar
    35    21    16   ar
    36     7     1    1
    37    33    28   ar
    38    37    30    1
    39     9    12    1
    40     2     8    1
    41    25    26    1
@<TRIPOS>MOLECULE
*****
 37 41 0 0 0
SMALL
GASTEIGER

@<TRIPOS>ATOM
      1 C         141.4399  137.8422  161.9657 C.3     1  UNL1        0.1565
      2 O         142.9130  137.7721  161.6917 O.3     1  UNL1       -0.3781
      3 C         139.9679  138.0034  161.7268 C.3     1  UNL1        0.0372
      4 C         139.0044  137.8780  162.8696 C.3     1  UNL1        0.0186
      5 C         139.5131  137.5914  164.2513 C.3     1  UNL1        0.0544
      6 C         140.9851  137.4303  164.4903 C.3     1  UNL1        0.0186
      7 C         141.9485  137.5557  163.3475 C.3     1  UNL1        0.0372
      8 H         143.0741  137.9269  160.7477 H       1  UNL1        0.2109
      9 N         142.7256  138.0239  159.7153 N.am    1  UNL1       -0.2820
     10 C         141.4429  138.1044  160.4888 C.2     1  UNL1        0.2502
     11 O         140.1632  138.4472  159.7854 O.2     1  UNL1       -0.2723
     12 H         143.5655  137.7989  160.1770 H       1  UNL1        0.1549
     13 C         143.1211  134.5993  156.8230 C.ar    1  UNL1        0.1389
     14 C         143.1241  134.8615  155.3461 C.ar    1  UNL1        0.0384
     15 C         142.9952  136.2652  154.8334 C.ar    1  UNL1        0.0223
     16 C         142.8634  137.4067  155.7974 C.ar    1  UNL1        0.0827
     17 N         142.7345  138.8105  155.2846 N.ar    1  UNL1       -0.2438
     18 C         142.6027  139.9520  156.2487 C.ar    1  UNL1        0.1001
     19 C         142.5997  139.6898  157.7257 C.ar    1  UNL1        0.0353
     20 C         142.7286  138.2861  158.2385 C.ar    1  UNL1        0.0534
     21 C         142.8604  137.1445  157.2743 C.ar    1  UNL1        0.0342
     22 C         142.9893  135.7408  157.7871 C.ar    1  UNL1        0.0396
     23 C         144.6085  132.5942  157.5420 C.3     1  UNL1        0.2525
     24 O         143.2499  133.1956  157.3358 O.3     1  UNL1       -0.4714
     25 N         138.5496  137.4660  165.3941 N.3     1  UNL1       -0.2935
     26 H         138.8896  136.7064  165.9839 H       1  UNL1        0.1236
     27 C         138.3009  138.6374  166.2974 C.3     1  UNL1        0.1152
     28 C         138.7252  140.0130  165.8760 C.ar    1  UNL1        0.0782
     29 C         137.9283  140.7623  164.8496 C.ar    1  UNL1        0.0562
     30 C         138.3527  142.1379  164.4282 C.ar    1  UNL1        0.1752
     31 C         139.5741  142.7642  165.0332 C.ar    1  UNL1        0.1914
     32 C         140.3710  142.0150  166.0595 C.ar    1  UNL1        0.1384
     33 N         139.9467  140.6393  166.4810 N.ar    1  UNL1       -0.2434
     34 O         139.9984  144.1399  164.6117 O.3     1  UNL1       -0.4668
     35 C         139.2015  144.8891  163.5854 C.3     1  UNL1        0.2527
     36 C         137.9801  144.2628  162.9804 C.3     1  UNL1        0.2526
     37 O         137.5558  142.8872  163.4018 O.3     1  UNL1       -0.4683
@<TRIPOS>BOND
     1    23    24    1
     2    24    13    1
     3    13    14   ar
     4    14    15   ar
     5    15    16   ar
     6    16    17   ar
     7    17    18   ar
     8    18    19   ar
     9    19    20   ar
    10    20     9    1
    11     9    10   am
    12    10    11    2
    13    10     1    1
    14     1     2    1
    15     1     3    1
    16     3     4    1
    17     4     5    1
    18     5    25    1
    19    25    27    1
    20    27    28    1
    21    28    29   ar
    22    29    30   ar
    23    30    31   ar
    24    31    32   ar
    25    32    33   ar
    26    31    34    1
    27    34    35    1
    28    35    36    1
    29    36    37    1
    30     5     6    1
    31     6     7    1
    32    20    21   ar
    33    21    22   ar
    34    22    13   ar
    35    21    16   ar
    36     7     1    1
    37    33    28   ar
    38    37    30    1
    39     9    12    1
    40     2     8    1
    41    25    26    1
@<TRIPOS>MOLECULE
*****
 37 41 0 0 0
SMALL
GASTEIGER

@<TRIPOS>ATOM
      1 C         138.5933  138.7945  162.6303 C.3     1  UNL1        0.1565
      2 O         138.8305  137.7502  161.5799 O.3     1  UNL1       -0.3781
      3 C         138.2907  140.1260  163.2511 C.3     1  UNL1        0.0372
      4 C         138.2588  140.2676  164.7440 C.3     1  UNL1        0.0186
      5 C         138.5295  139.0775  165.6162 C.3     1  UNL1        0.0544
      6 C         138.8321  137.7460  164.9954 C.3     1  UNL1        0.0186
      7 C         138.8640  137.6045  163.5025 C.3     1  UNL1        0.0372
      8 H         138.7395  138.1496  160.7006 H       1  UNL1        0.2109
      9 N         139.5621  139.8650  160.4703 N.am    1  UNL1       -0.2820
     10 C         138.4050  139.6218  161.3934 C.2     1  UNL1        0.2502
     11 O         137.0595  140.2060  161.0794 O.2     1  UNL1       -0.2723
     12 H         140.4452  139.4816  160.6764 H       1  UNL1        0.1549
     13 C         140.7301  144.2108  160.4709 C.ar    1  UNL1        0.1389
     14 C         140.5418  145.0382  159.2340 C.ar    1  UNL1        0.0384
     15 C         139.9641  144.4169  157.9969 C.ar    1  UNL1        0.0223
     16 C         139.5748  142.9684  157.9967 C.ar    1  UNL1        0.0827
     17 N         138.9972  142.3472  156.7596 N.ar    1  UNL1       -0.2438
     18 C         138.6078  140.8986  156.7594 C.ar    1  UNL1        0.1001
     19 C         138.7962  140.0712  157.9963 C.ar    1  UNL1        0.0353
     20 C         139.3738  140.6924  159.2334 C.ar    1  UNL1        0.0534
     21 C         139.7631  142.1410  159.2336 C.ar    1  UNL1        0.0342
     22 C         140.3408  142.7622  160.4707 C.ar    1  UNL1        0.0396
     23 C         142.5756  144.2893  162.2979 C.3     1  UNL1        0.2525
     24 O         141.3077  144.8320  161.7080 O.3     1  UNL1       -0.4714
     25 N         138.4975  139.2191  167.1092 N.3     1  UNL1       -0.2935
     26 H         138.4169  138.2774  167.4926 H       1  UNL1        0.1236
     27 C         139.6376  139.8815  167.8243 C.3     1  UNL1        0.1152
     28 C         140.8082  140.4052  167.0462 C.ar    1  UNL1        0.0782
     29 C         141.8014  139.4510  166.4521 C.ar    1  UNL1        0.0562
     30 C         142.9720  139.9747  165.6741 C.ar    1  UNL1        0.1752
     31 C         143.1494  141.4528  165.4902 C.ar    1  UNL1        0.1914
     32 C         142.1563  142.4071  166.0842 C.ar    1  UNL1        0.1384
     33 N         140.9856  141.8833  166.8623 N.ar    1  UNL1       -0.2434
     34 O         144.3201  141.9765  164.7121 O.3     1  UNL1       -0.4668
     35 C         145.3132  141.0223  164.1181 C.3     1  UNL1        0.2527
     36 C         145.1358  139.5442  164.3020 C.3     1  UNL1        0.2526
     37 O         143.9652  139.0205  165.0800 O.3     1  UNL1       -0.4683
@<TRIPOS>BOND
     1    23    24    1
     2    24    13    1
     3    13    14   ar
     4    14    15   ar
     5    15    16   ar
     6    16    17   ar
     7    17    18   ar
     8    18    19   ar
     9    19    20   ar
    10    20     9    1
    11     9    10   am
    12    10    11    2
    13    10     1    1
    14     1     2    1
    15     1     3    1
    16     3     4    1
    17     4     5    1
    18     5    25    1
    19    25    27    1
    20    27    28    1
    21    28    29   ar
    22    29    30   ar
    23    30    31   ar
    24    31    32   ar
    25    32    33   ar
    26    31    34    1
    27    34    35    1
    28    35    36    1
    29    36    37    1
    30     5     6    1
    31     6     7    1
    32    20    21   ar
    33    21    22   ar
    34    22    13   ar
    35    21    16   ar
    36     7     1    1
    37    33    28   ar
    38    37    30    1
    39     9    12    1
    40     2     8    1
    41    25    26    1
