@<TRIPOS>MOLECULE
*****
 30 33 0 0 0
SMALL
GASTEIGER

@<TRIPOS>ATOM
      1 N         138.5614  142.8720  162.3415 N.3     1  UNL1       -0.2700
      2 C         137.4979  142.1941  163.1536 C.3     1  UNL1        0.0897
      3 C         137.4303  140.6963  163.2002 C.3     1  UNL1        0.0897
      4 N         138.4263  139.8765  162.4346 N.3     1  UNL1       -0.2700
      5 C         139.4897  140.5544  161.6226 C.3     1  UNL1        0.0897
      6 C         139.5573  142.0521  161.5760 C.3     1  UNL1        0.0897
      7 C         138.6290  144.3697  162.2949 C.3     1  UNL1        0.0769
      8 C         139.3233  145.1236  163.3901 C.3     1  UNL1        0.0437
      9 C         143.4319  143.8692  164.7304 C.ar    1  UNL1        0.2900
     10 C         143.2700  145.0319  163.7966 C.ar    1  UNL1        0.0749
     11 C         141.9005  145.4500  163.3499 C.ar    1  UNL1        0.0021
     12 C         140.6928  144.7055  163.8369 C.ar    1  UNL1       -0.0204
     13 C         140.8547  143.5428  164.7706 C.ar    1  UNL1        0.0021
     14 C         142.2243  143.1247  165.2173 C.ar    1  UNL1        0.0749
     15 O         145.5022  142.3186  164.4870 O.2     1  UNL1        0.0415
     16 N         144.8014  143.4511  165.1771 N.pl3   1  UNL1        0.0809
     17 O         145.4702  144.1655  166.3139 O.co2   1  UNL1       -0.5760
     18 C         138.3587  138.3787  162.4812 C.3     1  UNL1        0.0769
     19 C         138.9974  137.6341  163.6159 C.3     1  UNL1        0.0437
     20 C         139.2498  138.3288  164.9212 C.ar    1  UNL1       -0.0207
     21 C         140.5791  138.9724  165.1835 C.ar    1  UNL1       -0.0027
     22 C         140.8314  139.6671  166.4888 C.ar    1  UNL1        0.0189
     23 C         139.7546  139.7182  167.5317 C.ar    1  UNL1        0.0862
     24 C         138.4253  139.0746  167.2694 C.ar    1  UNL1        0.0189
     25 C         138.1729  138.3798  165.9641 C.ar    1  UNL1       -0.0027
     26 N         140.0070  140.4129  168.8369 N.ar    1  UNL1       -0.1886
     27 C         140.7033  141.7295  169.0148 C.ar    1  UNL1        0.2258
     28 N         140.7340  142.0433  170.4813 N.ar    1  UNL1       -0.1045
     29 N         140.0567  140.9206  171.2098 N.ar    1  UNL1       -0.0222
     30 N         139.6074  139.9130  170.1935 N.ar    1  UNL1       -0.0385
@<TRIPOS>UNITY_ATOM_ATTR
16 1
charge 1
17 1
charge -1
@<TRIPOS>BOND
     1    15    16    2
     2    16    17    1
     3    16     9    1
     4     9    10   ar
     5    10    11   ar
     6    11    12   ar
     7    12     8    1
     8     8     7    1
     9     7     1    1
    10     1     2    1
    11     2     3    1
    12     3     4    1
    13     4    18    1
    14    18    19    1
    15    19    20    1
    16    20    21   ar
    17    21    22   ar
    18    22    23   ar
    19    23    26    1
    20    26    27   ar
    21    27    28   ar
    22    28    29   ar
    23    29    30   ar
    24    23    24   ar
    25    24    25   ar
    26     4     5    1
    27     5     6    1
    28    12    13   ar
    29    13    14   ar
    30    14     9   ar
    31     6     1    1
    32    25    20   ar
    33    30    26   ar
@<TRIPOS>MOLECULE
*****
 30 33 0 0 0
SMALL
GASTEIGER

@<TRIPOS>ATOM
      1 N         141.8132  137.8967  164.3696 N.3     1  UNL1       -0.2700
      2 C         142.4128  138.1919  163.0267 C.3     1  UNL1        0.0897
      3 C         143.6668  139.0090  162.9284 C.3     1  UNL1        0.0897
      4 N         144.3213  139.5310  164.1732 N.3     1  UNL1       -0.2700
      5 C         143.7217  139.2358  165.5161 C.3     1  UNL1        0.0897
      6 C         142.4677  138.4187  165.6143 C.3     1  UNL1        0.0897
      7 C         140.5592  137.0796  164.4679 C.3     1  UNL1        0.0769
      8 C         139.2674  137.7325  164.8616 C.3     1  UNL1        0.0437
      9 C         138.1441  141.7279  163.1224 C.ar    1  UNL1        0.2900
     10 C         137.9423  140.4770  162.3197 C.ar    1  UNL1        0.0749
     11 C         138.3167  139.1452  162.8994 C.ar    1  UNL1        0.0021
     12 C         138.8930  139.0643  164.2819 C.ar    1  UNL1       -0.0204
     13 C         139.0949  140.3152  165.0846 C.ar    1  UNL1        0.0021
     14 C         138.7204  141.6470  164.5049 C.ar    1  UNL1        0.0749
     15 O         137.7124  143.2407  161.0547 O.2     1  UNL1        0.0415
     16 N         137.7697  143.0597  162.5427 N.pl3   1  UNL1        0.0809
     17 O         137.4525  144.2106  163.4508 O.co2   1  UNL1       -0.5760
     18 C         145.5754  140.3481  164.0750 C.3     1  UNL1        0.0769
     19 C         145.5148  141.8378  164.2408 C.3     1  UNL1        0.0437
     20 C         144.4257  142.6232  163.5723 C.ar    1  UNL1       -0.0207
     21 C         143.3448  143.2579  164.3960 C.ar    1  UNL1       -0.0027
     22 C         142.2557  144.0433  163.7274 C.ar    1  UNL1        0.0189
     23 C         142.2475  144.1940  162.2351 C.ar    1  UNL1        0.0862
     24 C         143.3285  143.5593  161.4112 C.ar    1  UNL1        0.0189
     25 C         144.4176  142.7739  162.0798 C.ar    1  UNL1       -0.0027
     26 N         141.1584  144.9794  161.5665 N.ar    1  UNL1       -0.1886
     27 C         140.8557  144.9930  160.0974 C.ar    1  UNL1        0.2258
     28 N         139.6910  145.9111  159.8726 N.ar    1  UNL1       -0.1045
     29 N         139.2739  146.4650  161.2027 N.ar    1  UNL1       -0.0222
     30 N         140.1808  145.8891  162.2496 N.ar    1  UNL1       -0.0385
@<TRIPOS>UNITY_ATOM_ATTR
16 1
charge 1
17 1
charge -1
@<TRIPOS>BOND
     1    15    16    2
     2    16    17    1
     3    16     9    1
     4     9    10   ar
     5    10    11   ar
     6    11    12   ar
     7    12     8    1
     8     8     7    1
     9     7     1    1
    10     1     2    1
    11     2     3    1
    12     3     4    1
    13     4    18    1
    14    18    19    1
    15    19    20    1
    16    20    21   ar
    17    21    22   ar
    18    22    23   ar
    19    23    26    1
    20    26    27   ar
    21    27    28   ar
    22    28    29   ar
    23    29    30   ar
    24    23    24   ar
    25    24    25   ar
    26     4     5    1
    27     5     6    1
    28    12    13   ar
    29    13    14   ar
    30    14     9   ar
    31     6     1    1
    32    25    20   ar
    33    30    26   ar
@<TRIPOS>MOLECULE
*****
 30 33 0 0 0
SMALL
GASTEIGER

@<TRIPOS>ATOM
      1 N         138.5220  142.8760  162.4376 N.3     1  UNL1       -0.2700
      2 C         139.5726  142.1111  161.6884 C.3     1  UNL1        0.0897
      3 C         139.5585  140.6112  161.6982 C.3     1  UNL1        0.0897
      4 N         138.4937  139.8762  162.4572 N.3     1  UNL1       -0.2700
      5 C         137.4432  140.6411  163.2064 C.3     1  UNL1        0.0897
      6 C         137.4574  142.1410  163.1966 C.3     1  UNL1        0.0897
      7 C         138.5362  144.3759  162.4278 C.3     1  UNL1        0.0769
      8 C         139.2498  145.1263  163.5130 C.3     1  UNL1        0.0437
      9 C         143.3825  143.8695  164.7745 C.ar    1  UNL1        0.2900
     10 C         143.2043  145.0210  163.8300 C.ar    1  UNL1        0.0749
     11 C         141.8268  145.4400  163.4095 C.ar    1  UNL1        0.0021
     12 C         140.6274  144.7074  163.9335 C.ar    1  UNL1       -0.0204
     13 C         140.8055  143.5558  164.8780 C.ar    1  UNL1        0.0021
     14 C         142.1830  143.1369  165.2985 C.ar    1  UNL1        0.0749
     15 O         145.4288  142.2888  164.5220 O.2     1  UNL1        0.0415
     16 N         144.7600  143.4505  165.1951 N.pl3   1  UNL1        0.0809
     17 O         145.4688  144.1933  166.2886 O.co2   1  UNL1       -0.5760
     18 C         138.4796  138.3763  162.4670 C.3     1  UNL1        0.0769
     19 C         138.9485  137.6297  163.6807 C.3     1  UNL1        0.0437
     20 C         139.2615  138.3743  164.9447 C.ar    1  UNL1       -0.0207
     21 C         138.2408  138.4534  166.0410 C.ar    1  UNL1       -0.0027
     22 C         138.5539  139.1979  167.3049 C.ar    1  UNL1        0.0189
     23 C         139.8877  139.8634  167.4726 C.ar    1  UNL1        0.0862
     24 C         140.9085  139.7843  166.3763 C.ar    1  UNL1        0.0189
     25 C         140.5954  139.0398  165.1123 C.ar    1  UNL1       -0.0027
     26 N         140.2008  140.6080  168.7366 N.ar    1  UNL1       -0.1886
     27 C         139.3024  140.7340  169.9312 C.ar    1  UNL1        0.2258
     28 N         140.0136  141.5612  170.9608 N.ar    1  UNL1       -0.1045
     29 N         141.3515  141.9463  170.4026 N.ar    1  UNL1       -0.0222
     30 N         141.4672  141.3572  169.0279 N.ar    1  UNL1       -0.0385
@<TRIPOS>UNITY_ATOM_ATTR
16 1
charge 1
17 1
charge -1
@<TRIPOS>BOND
     1    15    16    2
     2    16    17    1
     3    16     9    1
     4     9    10   ar
     5    10    11   ar
     6    11    12   ar
     7    12     8    1
     8     8     7    1
     9     7     1    1
    10     1     2    1
    11     2     3    1
    12     3     4    1
    13     4    18    1
    14    18    19    1
    15    19    20    1
    16    20    21   ar
    17    21    22   ar
    18    22    23   ar
    19    23    26    1
    20    26    27   ar
    21    27    28   ar
    22    28    29   ar
    23    29    30   ar
    24    23    24   ar
    25    24    25   ar
    26     4     5    1
    27     5     6    1
    28    12    13   ar
    29    13    14   ar
    30    14     9   ar
    31     6     1    1
    32    25    20   ar
    33    30    26   ar
@<TRIPOS>MOLECULE
*****
 30 33 0 0 0
SMALL
GASTEIGER

@<TRIPOS>ATOM
      1 N         139.8324  138.2497  161.8246 N.3     1  UNL1       -0.2700
      2 C         139.8703  137.8666  163.2744 C.3     1  UNL1        0.0897
      3 C         141.1456  138.0013  164.0526 C.3     1  UNL1        0.0897
      4 N         142.3829  138.5191  163.3810 N.3     1  UNL1       -0.2700
      5 C         142.3449  138.9021  161.9312 C.3     1  UNL1        0.0897
      6 C         141.0696  138.7674  161.1531 C.3     1  UNL1        0.0897
      7 C         138.5571  138.1150  161.0465 C.3     1  UNL1        0.0769
      8 C         137.4508  139.1088  161.2418 C.3     1  UNL1        0.0437
      9 C         138.4081  143.3254  162.4884 C.ar    1  UNL1        0.2900
     10 C         138.7618  142.8523  161.1097 C.ar    1  UNL1        0.0749
     11 C         138.4426  141.4468  160.6941 C.ar    1  UNL1        0.0021
     12 C         137.7699  140.5144  161.6574 C.ar    1  UNL1       -0.0204
     13 C         137.4163  140.9874  163.0361 C.ar    1  UNL1        0.0021
     14 C         137.7354  142.3929  163.4517 C.ar    1  UNL1        0.0749
     15 O         139.0099  145.0414  164.3440 O.2     1  UNL1        0.0415
     16 N         138.7273  144.7309  162.9040 N.pl3   1  UNL1        0.0809
     17 O         138.7637  145.8259  161.8795 O.co2   1  UNL1       -0.5760
     18 C         143.6582  138.6538  164.1591 C.3     1  UNL1        0.0769
     19 C         144.0156  139.9660  164.7919 C.3     1  UNL1        0.0437
     20 C         143.2988  140.4226  166.0279 C.ar    1  UNL1       -0.0207
     21 C         142.8940  139.4246  167.0720 C.ar    1  UNL1       -0.0027
     22 C         142.1771  139.8812  168.3079 C.ar    1  UNL1        0.0189
     23 C         141.8651  141.3358  168.4999 C.ar    1  UNL1        0.0862
     24 C         142.2699  142.3338  167.4557 C.ar    1  UNL1        0.0189
     25 C         142.9867  141.8772  166.2198 C.ar    1  UNL1       -0.0027
     26 N         141.1482  141.7923  169.7358 N.ar    1  UNL1       -0.1886
     27 C         141.3772  141.2815  171.1274 C.ar    1  UNL1        0.2258
     28 N         140.4470  142.0133  172.0489 N.ar    1  UNL1       -0.1045
     29 N         139.6431  142.9765  171.2268 N.ar    1  UNL1       -0.0222
     30 N         140.0764  142.8400  169.7973 N.ar    1  UNL1       -0.0385
@<TRIPOS>UNITY_ATOM_ATTR
16 1
charge 1
17 1
charge -1
@<TRIPOS>BOND
     1    15    16    2
     2    16    17    1
     3    16     9    1
     4     9    10   ar
     5    10    11   ar
     6    11    12   ar
     7    12     8    1
     8     8     7    1
     9     7     1    1
    10     1     2    1
    11     2     3    1
    12     3     4    1
    13     4    18    1
    14    18    19    1
    15    19    20    1
    16    20    21   ar
    17    21    22   ar
    18    22    23   ar
    19    23    26    1
    20    26    27   ar
    21    27    28   ar
    22    28    29   ar
    23    29    30   ar
    24    23    24   ar
    25    24    25   ar
    26     4     5    1
    27     5     6    1
    28    12    13   ar
    29    13    14   ar
    30    14     9   ar
    31     6     1    1
    32    25    20   ar
    33    30    26   ar
@<TRIPOS>MOLECULE
*****
 30 33 0 0 0
SMALL
GASTEIGER

@<TRIPOS>ATOM
      1 N         140.2706  138.3041  161.5638 N.3     1  UNL1       -0.2700
      2 C         140.7020  137.5884  162.8094 C.3     1  UNL1        0.0897
      3 C         142.0385  137.8872  163.4214 C.3     1  UNL1        0.0897
      4 N         142.9435  138.9018  162.7877 N.3     1  UNL1       -0.2700
      5 C         142.5121  139.6175  161.5421 C.3     1  UNL1        0.0897
      6 C         141.1756  139.3187  160.9301 C.3     1  UNL1        0.0897
      7 C         138.9341  138.0053  160.9518 C.3     1  UNL1        0.0769
      8 C         137.7166  138.7539  161.4068 C.3     1  UNL1        0.0437
      9 C         138.0920  143.0052  162.8337 C.ar    1  UNL1        0.2900
     10 C         137.8417  141.9026  163.8193 C.ar    1  UNL1        0.0749
     11 C         137.7165  140.4855  163.3437 C.ar    1  UNL1        0.0021
     12 C         137.8417  140.1710  161.8824 C.ar    1  UNL1       -0.0204
     13 C         138.0920  141.2736  160.8968 C.ar    1  UNL1        0.0021
     14 C         138.2171  142.6907  161.3724 C.ar    1  UNL1        0.0749
     15 O         138.1097  144.7345  164.7725 O.2     1  UNL1        0.0415
     16 N         138.2171  144.4223  163.3093 N.pl3   1  UNL1        0.0809
     17 O         138.4497  145.5271  162.3218 O.co2   1  UNL1       -0.5760
     18 C         144.2800  139.2007  163.3996 C.3     1  UNL1        0.0769
     19 C         144.4182  140.3186  164.3903 C.3     1  UNL1        0.0437
     20 C         143.4097  140.4755  165.4895 C.ar    1  UNL1       -0.0207
     21 C         143.1929  139.3637  166.4727 C.ar    1  UNL1       -0.0027
     22 C         142.1844  139.5206  167.5719 C.ar    1  UNL1        0.0189
     23 C         141.3928  140.7894  167.6880 C.ar    1  UNL1        0.0862
     24 C         141.6096  141.9013  166.7048 C.ar    1  UNL1        0.0189
     25 C         142.6181  141.7444  165.6055 C.ar    1  UNL1       -0.0027
     26 N         140.3843  140.9463  168.7872 N.ar    1  UNL1       -0.1886
     27 C         140.2744  142.1134  169.7230 C.ar    1  UNL1        0.2258
     28 N         139.1308  141.8521  170.6578 N.ar    1  UNL1       -0.1045
     29 N         138.5339  140.5234  170.2998 N.ar    1  UNL1       -0.0222
     30 N         139.3085  139.9636  169.1437 N.ar    1  UNL1       -0.0385
@<TRIPOS>UNITY_ATOM_ATTR
16 1
charge 1
17 1
charge -1
@<TRIPOS>BOND
     1    15    16    2
     2    16    17    1
     3    16     9    1
     4     9    10   ar
     5    10    11   ar
     6    11    12   ar
     7    12     8    1
     8     8     7    1
     9     7     1    1
    10     1     2    1
    11     2     3    1
    12     3     4    1
    13     4    18    1
    14    18    19    1
    15    19    20    1
    16    20    21   ar
    17    21    22   ar
    18    22    23   ar
    19    23    26    1
    20    26    27   ar
    21    27    28   ar
    22    28    29   ar
    23    29    30   ar
    24    23    24   ar
    25    24    25   ar
    26     4     5    1
    27     5     6    1
    28    12    13   ar
    29    13    14   ar
    30    14     9   ar
    31     6     1    1
    32    25    20   ar
    33    30    26   ar
@<TRIPOS>MOLECULE
*****
 30 33 0 0 0
SMALL
GASTEIGER

@<TRIPOS>ATOM
      1 N         140.3443  144.6272  162.5406 N.3     1  UNL1       -0.2700
      2 C         140.9960  143.6491  161.6086 C.3     1  UNL1        0.0897
      3 C         142.4172  143.2276  161.8378 C.3     1  UNL1        0.0897
      4 N         143.1867  143.7842  162.9989 N.3     1  UNL1       -0.2700
      5 C         142.5349  144.7623  163.9308 C.3     1  UNL1        0.0897
      6 C         141.1137  145.1838  163.7016 C.3     1  UNL1        0.0897
      7 C         138.9231  145.0487  162.3114 C.3     1  UNL1        0.0769
      8 C         137.8052  144.3228  162.9994 C.3     1  UNL1        0.0437
      9 C         138.3136  140.0105  164.1808 C.ar    1  UNL1        0.2900
     10 C         138.6932  141.1004  165.1389 C.ar    1  UNL1        0.0749
     11 C         138.5238  142.5378  164.7451 C.ar    1  UNL1        0.0021
     12 C         137.9747  142.8854  163.3932 C.ar    1  UNL1       -0.0204
     13 C         137.5951  141.7955  162.4351 C.ar    1  UNL1        0.0021
     14 C         137.7646  140.3581  162.8289 C.ar    1  UNL1        0.0749
     15 O         138.2767  138.1569  166.0008 O.2     1  UNL1        0.0415
     16 N         138.4831  138.5731  164.5746 N.pl3   1  UNL1        0.0809
     17 O         138.8589  137.5519  163.5423 O.co2   1  UNL1       -0.5760
     18 C         144.6079  143.3627  163.2281 C.3     1  UNL1        0.0769
     19 C         144.9044  142.1257  164.0230 C.3     1  UNL1        0.0437
     20 C         143.9671  141.6902  165.1102 C.ar    1  UNL1       -0.0207
     21 C         143.2716  140.3647  165.0144 C.ar    1  UNL1       -0.0027
     22 C         142.3343  139.9292  166.1015 C.ar    1  UNL1        0.0189
     23 C         142.0925  140.8193  167.2844 C.ar    1  UNL1        0.0862
     24 C         142.7880  142.1449  167.3803 C.ar    1  UNL1        0.0189
     25 C         143.7253  142.5803  166.2931 C.ar    1  UNL1       -0.0027
     26 N         141.1552  140.3838  168.3716 N.ar    1  UNL1       -0.1886
     27 C         141.5505  139.9029  169.7363 C.ar    1  UNL1        0.2258
     28 N         140.2977  139.5746  170.4930 N.ar    1  UNL1       -0.1045
     29 N         139.1280  139.8527  169.5960 N.ar    1  UNL1       -0.0222
     30 N         139.6580  140.3528  168.2849 N.ar    1  UNL1       -0.0385
@<TRIPOS>UNITY_ATOM_ATTR
16 1
charge 1
17 1
charge -1
@<TRIPOS>BOND
     1    15    16    2
     2    16    17    1
     3    16     9    1
     4     9    10   ar
     5    10    11   ar
     6    11    12   ar
     7    12     8    1
     8     8     7    1
     9     7     1    1
    10     1     2    1
    11     2     3    1
    12     3     4    1
    13     4    18    1
    14    18    19    1
    15    19    20    1
    16    20    21   ar
    17    21    22   ar
    18    22    23   ar
    19    23    26    1
    20    26    27   ar
    21    27    28   ar
    22    28    29   ar
    23    29    30   ar
    24    23    24   ar
    25    24    25   ar
    26     4     5    1
    27     5     6    1
    28    12    13   ar
    29    13    14   ar
    30    14     9   ar
    31     6     1    1
    32    25    20   ar
    33    30    26   ar
@<TRIPOS>MOLECULE
*****
 30 33 0 0 0
SMALL
GASTEIGER

@<TRIPOS>ATOM
      1 N         143.8463  141.9002  161.9078 N.3     1  UNL1       -0.2700
      2 C         142.5197  141.5494  161.3017 C.3     1  UNL1        0.0897
      3 C         141.9843  140.1537  161.4252 C.3     1  UNL1        0.0897
      4 N         142.7754  139.1087  162.1548 N.3     1  UNL1       -0.2700
      5 C         144.1019  139.4595  162.7609 C.3     1  UNL1        0.0897
      6 C         144.6373  140.8552  162.6374 C.3     1  UNL1        0.0897
      7 C         144.3817  143.2959  161.7843 C.3     1  UNL1        0.0769
      8 C         144.0342  144.3266  162.8171 C.3     1  UNL1        0.0437
      9 C         139.8909  144.4488  164.5687 C.ar    1  UNL1        0.2900
     10 C         140.9335  143.5542  165.1707 C.ar    1  UNL1        0.0749
     11 C         142.3146  143.5135  164.5868 C.ar    1  UNL1        0.0021
     12 C         142.6531  144.3674  163.4010 C.ar    1  UNL1       -0.0204
     13 C         141.6104  145.2620  162.7990 C.ar    1  UNL1        0.0021
     14 C         140.2293  145.3028  163.3829 C.ar    1  UNL1        0.0749
     15 O         137.4589  143.5394  164.6600 O.2     1  UNL1        0.0415
     16 N         138.5098  144.4896  165.1526 N.pl3   1  UNL1        0.0809
     17 O         138.1796  145.4805  166.2292 O.co2   1  UNL1       -0.5760
     18 C         142.2400  137.7130  162.2783 C.3     1  UNL1        0.0769
     19 C         140.9794  137.4589  163.0507 C.3     1  UNL1        0.0437
     20 C         140.7107  138.2156  164.3176 C.ar    1  UNL1       -0.0207
     21 C         139.3334  138.7371  164.6020 C.ar    1  UNL1       -0.0027
     22 C         139.0647  139.4939  165.8689 C.ar    1  UNL1        0.0189
     23 C         140.1733  139.7292  166.8515 C.ar    1  UNL1        0.0862
     24 C         141.5508  139.2076  166.5672 C.ar    1  UNL1        0.0189
     25 C         141.8195  138.4509  165.3002 C.ar    1  UNL1       -0.0027
     26 N         139.9046  140.4859  168.1184 N.ar    1  UNL1       -0.1886
     27 C         140.4496  141.8385  168.4700 C.ar    1  UNL1        0.2258
     28 N         139.9256  142.2115  169.8251 N.ar    1  UNL1       -0.1045
     29 N         139.0567  141.0895  170.3110 N.ar    1  UNL1       -0.0222
     30 N         139.0438  140.0230  169.2562 N.ar    1  UNL1       -0.0385
@<TRIPOS>UNITY_ATOM_ATTR
16 1
charge 1
17 1
charge -1
@<TRIPOS>BOND
     1    15    16    2
     2    16    17    1
     3    16     9    1
     4     9    10   ar
     5    10    11   ar
     6    11    12   ar
     7    12     8    1
     8     8     7    1
     9     7     1    1
    10     1     2    1
    11     2     3    1
    12     3     4    1
    13     4    18    1
    14    18    19    1
    15    19    20    1
    16    20    21   ar
    17    21    22   ar
    18    22    23   ar
    19    23    26    1
    20    26    27   ar
    21    27    28   ar
    22    28    29   ar
    23    29    30   ar
    24    23    24   ar
    25    24    25   ar
    26     4     5    1
    27     5     6    1
    28    12    13   ar
    29    13    14   ar
    30    14     9   ar
    31     6     1    1
    32    25    20   ar
    33    30    26   ar
@<TRIPOS>MOLECULE
*****
 30 33 0 0 0
SMALL
GASTEIGER

@<TRIPOS>ATOM
      1 N         139.4935  138.7773  160.4784 N.3     1  UNL1       -0.2700
      2 C         138.5396  138.2604  161.5143 C.3     1  UNL1        0.0897
      3 C         139.0586  137.7693  162.8332 C.3     1  UNL1        0.0897
      4 N         140.5314  137.7951  163.1162 N.3     1  UNL1       -0.2700
      5 C         141.4853  138.3119  162.0803 C.3     1  UNL1        0.0897
      6 C         140.9663  138.8030  160.7614 C.3     1  UNL1        0.0897
      7 C         138.9745  139.2684  159.1595 C.3     1  UNL1        0.0769
      8 C         138.1650  140.5296  159.0946 C.3     1  UNL1        0.0437
      9 C         139.2618  144.0428  161.6838 C.ar    1  UNL1        0.2900
     10 C         139.8326  143.9224  160.3019 C.ar    1  UNL1        0.0749
     11 C         139.4670  142.7513  159.4388 C.ar    1  UNL1        0.0021
     12 C         138.5306  141.7006  159.9577 C.ar    1  UNL1       -0.0204
     13 C         137.9599  141.8210  161.3396 C.ar    1  UNL1        0.0021
     14 C         138.3255  142.9921  162.2026 C.ar    1  UNL1        0.0749
     15 O         139.9252  146.5437  161.9199 O.2     1  UNL1        0.0415
     16 N         139.6274  145.2139  162.5469 N.pl3   1  UNL1        0.0809
     17 O         139.6953  145.0553  164.0369 O.co2   1  UNL1       -0.5760
     18 C         141.0504  137.3040  164.4350 C.3     1  UNL1        0.0769
     19 C         142.0612  138.1137  165.1918 C.3     1  UNL1        0.0437
     20 C         141.6081  139.1116  166.2160 C.ar    1  UNL1       -0.0207
     21 C         142.6094  139.7619  167.1239 C.ar    1  UNL1       -0.0027
     22 C         142.1562  140.7597  168.1481 C.ar    1  UNL1        0.0189
     23 C         140.7017  141.1072  168.2644 C.ar    1  UNL1        0.0862
     24 C         139.7003  140.4568  167.3565 C.ar    1  UNL1        0.0189
     25 C         140.1534  139.4590  166.3323 C.ar    1  UNL1       -0.0027
     26 N         140.2485  142.1050  169.2886 N.ar    1  UNL1       -0.1886
     27 C         140.5783  143.5683  169.3003 C.ar    1  UNL1        0.2258
     28 N         139.9196  144.1824  170.4998 N.ar    1  UNL1       -0.1045
     29 N         139.1827  143.0987  171.2296 N.ar    1  UNL1       -0.0222
     30 N         139.3860  141.8148  170.4810 N.ar    1  UNL1       -0.0385
@<TRIPOS>UNITY_ATOM_ATTR
16 1
charge 1
17 1
charge -1
@<TRIPOS>BOND
     1    15    16    2
     2    16    17    1
     3    16     9    1
     4     9    10   ar
     5    10    11   ar
     6    11    12   ar
     7    12     8    1
     8     8     7    1
     9     7     1    1
    10     1     2    1
    11     2     3    1
    12     3     4    1
    13     4    18    1
    14    18    19    1
    15    19    20    1
    16    20    21   ar
    17    21    22   ar
    18    22    23   ar
    19    23    26    1
    20    26    27   ar
    21    27    28   ar
    22    28    29   ar
    23    29    30   ar
    24    23    24   ar
    25    24    25   ar
    26     4     5    1
    27     5     6    1
    28    12    13   ar
    29    13    14   ar
    30    14     9   ar
    31     6     1    1
    32    25    20   ar
    33    30    26   ar
@<TRIPOS>MOLECULE
*****
 30 33 0 0 0
SMALL
GASTEIGER

@<TRIPOS>ATOM
      1 N         143.1261  141.4027  165.7389 N.3     1  UNL1       -0.2700
      2 C         142.1615  142.3416  166.4008 C.3     1  UNL1        0.0897
      3 C         140.9464  141.8018  167.0952 C.3     1  UNL1        0.0897
      4 N         140.6959  140.3232  167.1276 N.3     1  UNL1       -0.2700
      5 C         141.6604  139.3844  166.4656 C.3     1  UNL1        0.0897
      6 C         142.8756  139.9242  165.7713 C.3     1  UNL1        0.0897
      7 C         144.3413  141.9424  165.0445 C.3     1  UNL1        0.0769
      8 C         144.2150  142.5604  163.6836 C.3     1  UNL1        0.0437
      9 C         140.4089  144.6532  162.5072 C.ar    1  UNL1        0.2900
     10 C         141.4912  145.4092  163.2193 C.ar    1  UNL1        0.0749
     11 C         142.7599  144.7115  163.6115 C.ar    1  UNL1        0.0021
     12 C         142.9463  143.2580  163.2915 C.ar    1  UNL1       -0.0204
     13 C         141.8640  142.5021  162.5794 C.ar    1  UNL1        0.0021
     14 C         140.5953  143.1997  162.1872 C.ar    1  UNL1        0.0749
     15 O         137.8173  144.8203  162.5824 O.2     1  UNL1        0.0415
     16 N         139.1402  145.3508  162.1151 N.pl3   1  UNL1        0.0809
     17 O         139.1945  146.5790  161.2556 O.co2   1  UNL1       -0.5760
     18 C         139.4807  139.7834  167.8219 C.3     1  UNL1        0.0769
     19 C         138.3999  139.1112  167.0281 C.3     1  UNL1        0.0437
     20 C         138.4252  139.1668  165.5293 C.ar    1  UNL1       -0.0207
     21 C         138.7984  137.9473  164.7397 C.ar    1  UNL1       -0.0027
     22 C         138.8236  138.0030  163.2410 C.ar    1  UNL1        0.0189
     23 C         138.4757  139.2781  162.5318 C.ar    1  UNL1        0.0862
     24 C         138.1025  140.4977  163.3215 C.ar    1  UNL1        0.0189
     25 C         138.0772  140.4421  164.8202 C.ar    1  UNL1       -0.0027
     26 N         138.5009  139.3338  161.0331 N.ar    1  UNL1       -0.1886
     27 C         139.4294  138.5680  160.1378 C.ar    1  UNL1        0.2258
     28 N         139.1044  138.9259  158.7179 N.ar    1  UNL1       -0.1045
     29 N         137.9751  139.9130  158.7355 N.ar    1  UNL1       -0.0222
     30 N         137.6021  140.1651  160.1664 N.ar    1  UNL1       -0.0385
@<TRIPOS>UNITY_ATOM_ATTR
16 1
charge 1
17 1
charge -1
@<TRIPOS>BOND
     1    15    16    2
     2    16    17    1
     3    16     9    1
     4     9    10   ar
     5    10    11   ar
     6    11    12   ar
     7    12     8    1
     8     8     7    1
     9     7     1    1
    10     1     2    1
    11     2     3    1
    12     3     4    1
    13     4    18    1
    14    18    19    1
    15    19    20    1
    16    20    21   ar
    17    21    22   ar
    18    22    23   ar
    19    23    26    1
    20    26    27   ar
    21    27    28   ar
    22    28    29   ar
    23    29    30   ar
    24    23    24   ar
    25    24    25   ar
    26     4     5    1
    27     5     6    1
    28    12    13   ar
    29    13    14   ar
    30    14     9   ar
    31     6     1    1
    32    25    20   ar
    33    30    26   ar
