@<TRIPOS>MOLECULE
*****
 31 34 0 0 0
SMALL
GASTEIGER

@<TRIPOS>ATOM
      1 N         139.2245  140.1429  166.7166 N.3     1  UNL1       -0.2715
      2 N         139.7551  143.1294  163.3925 N.pl3   1  UNL1       -0.2784
      3 C         140.9369  142.6993  164.2100 C.3     1  UNL1        0.0950
      4 C         140.7601  141.7038  165.3180 C.3     1  UNL1        0.0375
      5 C         139.4014  141.1384  165.6085 C.3     1  UNL1        0.0610
      6 C         138.2196  141.5686  164.7910 C.3     1  UNL1        0.0375
      7 C         138.3965  142.5640  163.6831 C.3     1  UNL1        0.0950
      8 N         141.7212  145.7100  159.2265 N.pl3   1  UNL1       -0.3277
      9 C         140.8357  145.3111  160.3696 C.ar    1  UNL1        0.2131
     10 N         139.5724  146.0026  160.7893 N.ar    1  UNL1       -0.1121
     11 N         139.0139  145.2695  161.9727 N.ar    1  UNL1       -0.1117
     12 C         139.9320  144.1249  162.2845 C.ar    1  UNL1        0.2194
     13 N         141.0579  144.1507  161.2937 N.ar    1  UNL1       -0.2979
     14 H         141.4900  146.4915  158.6742 H       1  UNL1        0.1451
     15 H         142.5336  145.1904  159.0285 H       1  UNL1        0.1451
     16 H         141.8105  143.5171  161.2564 H       1  UNL1        0.1713
     17 C         138.1543  139.0963  166.6208 C.3     1  UNL1        0.0768
     18 C         138.4262  137.8093  165.8999 C.3     1  UNL1        0.0437
     19 C         139.3005  137.8025  164.6811 C.ar    1  UNL1       -0.0207
     20 C         140.7798  137.5967  164.8204 C.ar    1  UNL1       -0.0034
     21 C         141.6541  137.5899  163.6016 C.ar    1  UNL1        0.0111
     22 C         141.0491  137.7890  162.2434 C.ar    1  UNL1        0.0577
     23 CL        141.9234  137.7823  161.0246 Cl      1  UNL1       -0.0822
     24 C         139.5698  137.9949  162.1042 C.ar    1  UNL1        0.0111
     25 C         138.6955  138.0016  163.3231 C.ar    1  UNL1       -0.0034
     26 C         140.1180  140.1940  167.9204 C.3     1  UNL1        0.1019
     27 C         140.0633  141.3735  168.8455 C.3     1  UNL1        0.1312
     28 C         140.7105  142.7067  168.6136 C.3     1  UNL1        0.0336
     29 C         140.3989  143.5840  169.7897 C.3     1  UNL1        0.0346
     30 C         139.5591  142.7930  170.7484 C.3     1  UNL1        0.1422
     31 O         139.3517  141.4269  170.1649 O.3     1  UNL1       -0.3548
@<TRIPOS>BOND
     1     8     9    1
     2     9    10   ar
     3    10    11   ar
     4    11    12   ar
     5    12     2    1
     6     2     3    1
     7     3     4    1
     8     4     5    1
     9     5     1    1
    10     1    17    1
    11    17    18    1
    12    18    19    1
    13    19    20   ar
    14    20    21   ar
    15    21    22   ar
    16    22    23    1
    17    22    24   ar
    18    24    25   ar
    19     1    26    1
    20    26    27    1
    21    27    28    1
    22    28    29    1
    23    29    30    1
    24    30    31    1
    25     5     6    1
    26     6     7    1
    27    12    13   ar
    28    13     9   ar
    29     7     2    1
    30    25    19   ar
    31    31    27    1
    32     8    14    1
    33     8    15    1
    34    13    16    1
@<TRIPOS>MOLECULE
*****
 31 34 0 0 0
SMALL
GASTEIGER

@<TRIPOS>ATOM
      1 N         138.2059  139.8380  163.3688 N.3     1  UNL1       -0.2715
      2 N         139.6275  140.4836  167.5892 N.pl3   1  UNL1       -0.2784
      3 C         138.5764  139.4530  167.3013 C.3     1  UNL1        0.0950
      4 C         138.1025  139.2378  165.8945 C.3     1  UNL1        0.0375
      5 C         138.6798  140.0533  164.7756 C.3     1  UNL1        0.0610
      6 C         139.7308  141.0839  165.0636 C.3     1  UNL1        0.0375
      7 C         140.2047  141.2991  166.4704 C.3     1  UNL1        0.0950
      8 N         142.2526  142.3478  171.7743 N.pl3   1  UNL1       -0.3277
      9 C         141.3080  141.5557  170.9197 C.ar    1  UNL1        0.2131
     10 N         140.3531  140.5042  171.4022 N.ar    1  UNL1       -0.1121
     11 N         139.6074  139.9747  170.2133 N.ar    1  UNL1       -0.1117
     12 C         140.1014  140.6988  168.9961 C.ar    1  UNL1        0.2194
     13 N         141.1524  141.6759  169.4326 N.ar    1  UNL1       -0.2979
     14 H         142.2818  142.1962  172.7466 H       1  UNL1        0.1451
     15 H         142.8434  143.0193  171.3628 H       1  UNL1        0.1451
     16 H         141.6523  142.2886  168.8462 H       1  UNL1        0.1713
     17 C         138.4944  138.5424  162.6701 C.3     1  UNL1        0.0768
     18 C         139.5051  137.5918  163.2401 C.3     1  UNL1        0.0437
     19 C         140.8990  138.0641  163.5299 C.ar    1  UNL1       -0.0207
     20 C         141.6915  138.7612  162.4641 C.ar    1  UNL1       -0.0034
     21 C         143.0854  139.2335  162.7540 C.ar    1  UNL1        0.0111
     22 C         143.6867  139.0088  164.1097 C.ar    1  UNL1        0.0577
     23 CL        145.0806  139.4811  164.3996 Cl      1  UNL1       -0.0822
     24 C         142.8942  138.3117  165.1755 C.ar    1  UNL1        0.0111
     25 C         141.5002  137.8394  164.8856 C.ar    1  UNL1       -0.0034
     26 C         137.4434  140.9184  162.6606 C.3     1  UNL1        0.1019
     27 C         138.0470  142.2826  162.5035 C.3     1  UNL1        0.1312
     28 C         137.6277  143.5221  163.2370 C.3     1  UNL1        0.0336
     29 C         138.4973  144.6524  162.7722 C.3     1  UNL1        0.0346
     30 C         139.4541  144.1115  161.7513 C.3     1  UNL1        0.1422
     31 O         139.1757  142.6469  161.5853 O.3     1  UNL1       -0.3548
@<TRIPOS>BOND
     1     8     9    1
     2     9    10   ar
     3    10    11   ar
     4    11    12   ar
     5    12     2    1
     6     2     3    1
     7     3     4    1
     8     4     5    1
     9     5     1    1
    10     1    17    1
    11    17    18    1
    12    18    19    1
    13    19    20   ar
    14    20    21   ar
    15    21    22   ar
    16    22    23    1
    17    22    24   ar
    18    24    25   ar
    19     1    26    1
    20    26    27    1
    21    27    28    1
    22    28    29    1
    23    29    30    1
    24    30    31    1
    25     5     6    1
    26     6     7    1
    27    12    13   ar
    28    13     9   ar
    29     7     2    1
    30    25    19   ar
    31    31    27    1
    32     8    14    1
    33     8    15    1
    34    13    16    1
@<TRIPOS>MOLECULE
*****
 31 34 0 0 0
SMALL
GASTEIGER

@<TRIPOS>ATOM
      1 N         144.0661  143.0086  163.6159 N.3     1  UNL1       -0.2715
      2 N         141.7580  141.9762  167.3384 N.pl3   1  UNL1       -0.2784
      3 C         141.1199  141.8129  165.9908 C.3     1  UNL1        0.0950
      4 C         141.8893  142.1570  164.7500 C.3     1  UNL1        0.0375
      5 C         143.2968  142.6645  164.8568 C.3     1  UNL1        0.0610
      6 C         143.9349  142.8277  166.2044 C.3     1  UNL1        0.0375
      7 C         143.1656  142.4836  167.4452 C.3     1  UNL1        0.0950
      8 N         139.6210  139.2609  171.3310 N.pl3   1  UNL1       -0.3277
      9 C         140.0064  140.3840  170.4144 C.ar    1  UNL1        0.2131
     10 N         139.6031  141.8212  170.5630 N.ar    1  UNL1       -0.1121
     11 N         140.2103  142.5925  169.4288 N.ar    1  UNL1       -0.1117
     12 C         140.9887  141.6321  168.5792 C.ar    1  UNL1        0.2194
     13 N         140.8627  140.2672  169.1884 N.ar    1  UNL1       -0.2979
     14 H         139.0520  139.4382  172.1147 H       1  UNL1        0.1451
     15 H         139.9369  138.3464  171.1489 H       1  UNL1        0.1451
     16 H         141.2704  139.4399  168.8440 H       1  UNL1        0.1713
     17 C         144.9816  141.9950  162.9957 C.3     1  UNL1        0.0768
     18 C         145.2699  140.7081  163.7105 C.3     1  UNL1        0.0437
     19 C         144.1739  139.7062  163.9227 C.ar    1  UNL1       -0.0207
     20 C         143.8992  139.1752  165.2984 C.ar    1  UNL1       -0.0034
     21 C         142.8032  138.1734  165.5106 C.ar    1  UNL1        0.0111
     22 C         141.9819  137.7025  164.3471 C.ar    1  UNL1        0.0577
     23 CL        140.8859  136.7006  164.5593 Cl      1  UNL1       -0.0822
     24 C         142.2566  138.2335  162.9714 C.ar    1  UNL1        0.0111
     25 C         143.3526  139.2354  162.7592 C.ar    1  UNL1       -0.0034
     26 C         143.9200  144.3663  162.9952 C.3     1  UNL1        0.1019
     27 C         142.6138  144.7733  162.3804 C.3     1  UNL1        0.1312
     28 C         141.4626  145.4129  163.0985 C.3     1  UNL1        0.0336
     29 C         140.3667  145.6470  162.1015 C.3     1  UNL1        0.0346
     30 C         140.8405  145.1520  160.7671 C.3     1  UNL1        0.1422
     31 O         142.2293  144.6120  160.9395 O.3     1  UNL1       -0.3548
@<TRIPOS>BOND
     1     8     9    1
     2     9    10   ar
     3    10    11   ar
     4    11    12   ar
     5    12     2    1
     6     2     3    1
     7     3     4    1
     8     4     5    1
     9     5     1    1
    10     1    17    1
    11    17    18    1
    12    18    19    1
    13    19    20   ar
    14    20    21   ar
    15    21    22   ar
    16    22    23    1
    17    22    24   ar
    18    24    25   ar
    19     1    26    1
    20    26    27    1
    21    27    28    1
    22    28    29    1
    23    29    30    1
    24    30    31    1
    25     5     6    1
    26     6     7    1
    27    12    13   ar
    28    13     9   ar
    29     7     2    1
    30    25    19   ar
    31    31    27    1
    32     8    14    1
    33     8    15    1
    34    13    16    1
@<TRIPOS>MOLECULE
*****
 31 34 0 0 0
SMALL
GASTEIGER

@<TRIPOS>ATOM
      1 N         138.8810  138.9686  163.2104 N.3     1  UNL1       -0.2715
      2 N         139.8853  140.1110  167.4455 N.pl3   1  UNL1       -0.2784
      3 C         140.7305  140.6134  166.3127 C.3     1  UNL1        0.0950
      4 C         140.3957  140.2326  164.9011 C.3     1  UNL1        0.0375
      5 C         139.2157  139.3494  164.6222 C.3     1  UNL1        0.0610
      6 C         138.3706  138.8471  165.7550 C.3     1  UNL1        0.0375
      7 C         138.7053  139.2278  167.1667 C.3     1  UNL1        0.0950
      8 N         142.1421  142.4205  171.6234 N.pl3   1  UNL1       -0.3277
      9 C         141.2574  141.5533  170.7776 C.ar    1  UNL1        0.2131
     10 N         140.2129  140.6020  171.2819 N.ar    1  UNL1       -0.1121
     11 N         139.5718  139.9460  170.0950 N.ar    1  UNL1       -0.1117
     12 C         140.2200  140.4918  168.8573 C.ar    1  UNL1        0.2194
     13 N         141.2618  141.4852  169.2792 N.ar    1  UNL1       -0.2979
     14 H         142.0640  142.3948  172.6044 H       1  UNL1        0.1451
     15 H         142.8009  143.0153  171.1974 H       1  UNL1        0.1451
     16 H         141.8458  142.0017  168.6781 H       1  UNL1        0.1713
     17 C         137.8728  139.7662  162.4375 C.3     1  UNL1        0.0768
     18 C         137.3110  141.0298  163.0186 C.3     1  UNL1        0.0437
     19 C         138.0016  142.3390  162.7755 C.ar    1  UNL1       -0.0207
     20 C         138.7795  142.5532  161.5110 C.ar    1  UNL1       -0.0034
     21 C         139.4701  143.8623  161.2679 C.ar    1  UNL1        0.0111
     22 C         139.3829  144.9574  162.2895 C.ar    1  UNL1        0.0577
     23 CL        140.0736  146.2665  162.0464 Cl      1  UNL1       -0.0822
     24 C         138.6051  144.7431  163.5540 C.ar    1  UNL1        0.0111
     25 C         137.9145  143.4339  163.7970 C.ar    1  UNL1       -0.0034
     26 C         139.5544  137.7903  162.5717 C.3     1  UNL1        0.1019
     27 C         140.9334  137.9340  161.9993 C.3     1  UNL1        0.1312
     28 C         142.2189  137.8691  162.7696 C.3     1  UNL1        0.0336
     29 C         143.3491  138.0628  161.8025 C.3     1  UNL1        0.0346
     30 C         142.7620  138.2473  160.4345 C.3     1  UNL1        0.1422
     31 O         141.2691  138.1677  160.5562 O.3     1  UNL1       -0.3548
@<TRIPOS>BOND
     1     8     9    1
     2     9    10   ar
     3    10    11   ar
     4    11    12   ar
     5    12     2    1
     6     2     3    1
     7     3     4    1
     8     4     5    1
     9     5     1    1
    10     1    17    1
    11    17    18    1
    12    18    19    1
    13    19    20   ar
    14    20    21   ar
    15    21    22   ar
    16    22    23    1
    17    22    24   ar
    18    24    25   ar
    19     1    26    1
    20    26    27    1
    21    27    28    1
    22    28    29    1
    23    29    30    1
    24    30    31    1
    25     5     6    1
    26     6     7    1
    27    12    13   ar
    28    13     9   ar
    29     7     2    1
    30    25    19   ar
    31    31    27    1
    32     8    14    1
    33     8    15    1
    34    13    16    1
@<TRIPOS>MOLECULE
*****
 31 34 0 0 0
SMALL
GASTEIGER

@<TRIPOS>ATOM
      1 N         139.0490  138.9946  164.1867 N.3     1  UNL1       -0.2715
      2 N         140.4359  141.6727  167.5265 N.pl3   1  UNL1       -0.2784
      3 C         140.7240  142.0408  166.1013 C.3     1  UNL1        0.0950
      4 C         140.2617  141.1481  164.9880 C.3     1  UNL1        0.0375
      5 C         139.5113  139.8873  165.3000 C.3     1  UNL1        0.0610
      6 C         139.2232  139.5192  166.7253 C.3     1  UNL1        0.0375
      7 C         139.6855  140.4119  167.8386 C.3     1  UNL1        0.0950
      8 N         143.4296  143.9057  171.2592 N.pl3   1  UNL1       -0.3277
      9 C         142.2742  143.5918  170.3556 C.ar    1  UNL1        0.2131
     10 N         140.9447  144.2864  170.3506 N.ar    1  UNL1       -0.1121
     11 N         140.0943  143.6521  169.2903 N.ar    1  UNL1       -0.1117
     12 C         140.8982  142.5654  168.6399 C.ar    1  UNL1        0.2194
     13 N         142.2454  142.5281  169.2983 N.ar    1  UNL1       -0.2979
     14 H         143.3519  144.6263  171.9254 H       1  UNL1        0.1451
     15 H         144.2657  143.3910  171.1861 H       1  UNL1        0.1451
     16 H         142.9815  141.9135  169.0756 H       1  UNL1        0.1713
     17 C         139.2428  137.5105  164.2857 C.3     1  UNL1        0.0768
     18 C         140.6233  136.9425  164.4331 C.3     1  UNL1        0.0437
     19 C         141.8207  137.8337  164.2851 C.ar    1  UNL1       -0.0207
     20 C         142.5891  138.2652  165.4989 C.ar    1  UNL1       -0.0034
     21 C         143.7865  139.1564  165.3509 C.ar    1  UNL1        0.0111
     22 C         144.2156  139.6162  163.9891 C.ar    1  UNL1        0.0577
     23 CL        145.4130  140.5074  163.8411 Cl      1  UNL1       -0.0822
     24 C         143.4472  139.1847  162.7752 C.ar    1  UNL1        0.0111
     25 C         142.2497  138.2934  162.9233 C.ar    1  UNL1       -0.0034
     26 C         138.3930  139.5861  162.9744 C.3     1  UNL1        0.1019
     27 C         139.0732  139.5070  161.6398 C.3     1  UNL1        0.1312
     28 C         140.0020  140.5331  161.0613 C.3     1  UNL1        0.0336
     29 C         140.4468  140.0482  159.7134 C.3     1  UNL1        0.0346
     30 C         139.7928  138.7224  159.4587 C.3     1  UNL1        0.1422
     31 O         138.9439  138.3880  160.6493 O.3     1  UNL1       -0.3548
@<TRIPOS>BOND
     1     8     9    1
     2     9    10   ar
     3    10    11   ar
     4    11    12   ar
     5    12     2    1
     6     2     3    1
     7     3     4    1
     8     4     5    1
     9     5     1    1
    10     1    17    1
    11    17    18    1
    12    18    19    1
    13    19    20   ar
    14    20    21   ar
    15    21    22   ar
    16    22    23    1
    17    22    24   ar
    18    24    25   ar
    19     1    26    1
    20    26    27    1
    21    27    28    1
    22    28    29    1
    23    29    30    1
    24    30    31    1
    25     5     6    1
    26     6     7    1
    27    12    13   ar
    28    13     9   ar
    29     7     2    1
    30    25    19   ar
    31    31    27    1
    32     8    14    1
    33     8    15    1
    34    13    16    1
@<TRIPOS>MOLECULE
*****
 31 34 0 0 0
SMALL
GASTEIGER

@<TRIPOS>ATOM
      1 N         138.7428  143.6769  163.5341 N.3     1  UNL1       -0.2715
      2 N         140.0603  141.3287  167.1397 N.pl3   1  UNL1       -0.2784
      3 C         139.2963  140.6507  166.0412 C.3     1  UNL1        0.0950
      4 C         138.8572  141.4334  164.8394 C.3     1  UNL1        0.0375
      5 C         139.1820  142.8942  164.7360 C.3     1  UNL1        0.0610
      6 C         139.9459  143.5722  165.8345 C.3     1  UNL1        0.0375
      7 C         140.3850  142.7895  167.0363 C.3     1  UNL1        0.0950
      8 N         143.0509  138.6554  170.5735 N.pl3   1  UNL1       -0.3277
      9 C         141.8741  139.3172  169.9199 C.ar    1  UNL1        0.2131
     10 N         140.4763  139.3658  170.4623 N.ar    1  UNL1       -0.1121
     11 N         139.6268  140.1252  169.4868 N.ar    1  UNL1       -0.1117
     12 C         140.4994  140.5460  168.3416 C.ar    1  UNL1        0.2194
     13 N         141.8883  140.0466  168.6093 N.ar    1  UNL1       -0.2979
     14 H         142.9411  138.1991  171.4389 H       1  UNL1        0.1451
     15 H         143.9331  138.6774  170.1370 H       1  UNL1        0.1451
     16 H         142.6717  140.1750  168.0269 H       1  UNL1        0.1713
     17 C         139.2973  145.0489  163.2890 C.3     1  UNL1        0.0768
     18 C         140.5437  145.2192  162.4720 C.3     1  UNL1        0.0437
     19 C         141.7840  144.4543  162.8277 C.ar    1  UNL1       -0.0207
     20 C         142.7688  145.0327  163.8001 C.ar    1  UNL1       -0.0034
     21 C         144.0091  144.2677  164.1559 C.ar    1  UNL1        0.0111
     22 C         144.2645  142.9244  163.5392 C.ar    1  UNL1        0.0577
     23 CL        145.5048  142.1594  163.8950 Cl      1  UNL1       -0.0822
     24 C         143.2797  142.3460  162.5669 C.ar    1  UNL1        0.0111
     25 C         142.0393  143.1110  162.2111 C.ar    1  UNL1       -0.0034
     26 C         137.7491  143.0876  162.5774 C.3     1  UNL1        0.1019
     27 C         138.2176  142.4847  161.2863 C.3     1  UNL1        0.1312
     28 C         138.5618  141.0422  161.0605 C.3     1  UNL1        0.0336
     29 C         138.9811  140.8844  159.6290 C.3     1  UNL1        0.0346
     30 C         138.8961  142.2293  158.9701 C.3     1  UNL1        0.1422
     31 O         138.4243  143.2183  159.9944 O.3     1  UNL1       -0.3548
@<TRIPOS>BOND
     1     8     9    1
     2     9    10   ar
     3    10    11   ar
     4    11    12   ar
     5    12     2    1
     6     2     3    1
     7     3     4    1
     8     4     5    1
     9     5     1    1
    10     1    17    1
    11    17    18    1
    12    18    19    1
    13    19    20   ar
    14    20    21   ar
    15    21    22   ar
    16    22    23    1
    17    22    24   ar
    18    24    25   ar
    19     1    26    1
    20    26    27    1
    21    27    28    1
    22    28    29    1
    23    29    30    1
    24    30    31    1
    25     5     6    1
    26     6     7    1
    27    12    13   ar
    28    13     9   ar
    29     7     2    1
    30    25    19   ar
    31    31    27    1
    32     8    14    1
    33     8    15    1
    34    13    16    1
@<TRIPOS>MOLECULE
*****
 31 34 0 0 0
SMALL
GASTEIGER

@<TRIPOS>ATOM
      1 N         138.4038  141.1868  162.9618 N.3     1  UNL1       -0.2715
      2 N         139.5255  140.5996  167.2800 N.pl3   1  UNL1       -0.2784
      3 C         140.0327  141.7951  166.5293 C.3     1  UNL1        0.0950
      4 C         139.6588  141.9908  165.0899 C.3     1  UNL1        0.0375
      5 C         138.7777  140.9910  164.4013 C.3     1  UNL1        0.0610
      6 C         138.2706  139.7956  165.1520 C.3     1  UNL1        0.0375
      7 C         138.6445  139.5999  166.5914 C.3     1  UNL1        0.0950
      8 N         142.2745  140.5131  171.7875 N.pl3   1  UNL1       -0.3277
      9 C         141.1630  140.3641  170.7913 C.ar    1  UNL1        0.2131
     10 N         139.7865  139.8412  171.0778 N.ar    1  UNL1       -0.1121
     11 N         139.0056  139.8659  169.7973 N.ar    1  UNL1       -0.1117
     12 C         139.8994  140.4039  168.7195 C.ar    1  UNL1        0.2194
     13 N         141.2327  140.7118  169.3339 N.ar    1  UNL1       -0.2979
     14 H         142.1312  140.2561  172.7270 H       1  UNL1        0.1451
     15 H         143.1473  140.8678  171.5018 H       1  UNL1        0.1451
     16 H         142.0161  141.0779  168.8631 H       1  UNL1        0.1713
     17 C         138.6931  140.1098  161.9587 C.3     1  UNL1        0.0768
     18 C         140.1108  139.7097  161.6756 C.3     1  UNL1        0.0437
     19 C         141.0159  139.3078  162.8022 C.ar    1  UNL1       -0.0207
     20 C         140.7967  138.0047  163.5121 C.ar    1  UNL1       -0.0034
     21 C         141.7018  137.6029  164.6387 C.ar    1  UNL1        0.0111
     22 C         142.8262  138.5041  165.0555 C.ar    1  UNL1        0.0577
     23 CL        143.7312  138.1023  166.1821 Cl      1  UNL1       -0.0822
     24 C         143.0454  139.8072  164.3456 C.ar    1  UNL1        0.0111
     25 C         142.1402  140.2090  163.2189 C.ar    1  UNL1       -0.0034
     26 C         137.7406  142.4595  162.5256 C.3     1  UNL1        0.1019
     27 C         138.5740  143.6313  162.0986 C.3     1  UNL1        0.1312
     28 C         138.8407  144.8654  162.9084 C.3     1  UNL1        0.0336
     29 C         139.7185  145.7716  162.0970 C.3     1  UNL1        0.0346
     30 C         139.9943  145.0974  160.7857 C.3     1  UNL1        0.1422
     31 O         139.2869  143.7747  160.7867 O.3     1  UNL1       -0.3548
@<TRIPOS>BOND
     1     8     9    1
     2     9    10   ar
     3    10    11   ar
     4    11    12   ar
     5    12     2    1
     6     2     3    1
     7     3     4    1
     8     4     5    1
     9     5     1    1
    10     1    17    1
    11    17    18    1
    12    18    19    1
    13    19    20   ar
    14    20    21   ar
    15    21    22   ar
    16    22    23    1
    17    22    24   ar
    18    24    25   ar
    19     1    26    1
    20    26    27    1
    21    27    28    1
    22    28    29    1
    23    29    30    1
    24    30    31    1
    25     5     6    1
    26     6     7    1
    27    12    13   ar
    28    13     9   ar
    29     7     2    1
    30    25    19   ar
    31    31    27    1
    32     8    14    1
    33     8    15    1
    34    13    16    1
@<TRIPOS>MOLECULE
*****
 31 34 0 0 0
SMALL
GASTEIGER

@<TRIPOS>ATOM
      1 N         142.5458  138.3437  163.9681 N.3     1  UNL1       -0.2715
      2 N         141.3234  140.2271  167.8679 N.pl3   1  UNL1       -0.2784
      3 C         140.5146  140.4751  166.6292 C.3     1  UNL1        0.0950
      4 C         140.9221  139.8473  165.3293 C.3     1  UNL1        0.0375
      5 C         142.1383  138.9715  165.2681 C.3     1  UNL1        0.0610
      6 C         142.9471  138.7236  166.5068 C.3     1  UNL1        0.0375
      7 C         142.5396  139.3514  167.8067 C.3     1  UNL1        0.0950
      8 N         139.0711  143.4316  171.4091 N.pl3   1  UNL1       -0.3277
      9 C         139.8806  142.3279  170.7956 C.ar    1  UNL1        0.2131
     10 N         140.6972  141.3141  171.5411 N.ar    1  UNL1       -0.1121
     11 N         141.3370  140.4039  170.5351 N.ar    1  UNL1       -0.1117
     12 C         140.9159  140.8550  169.1679 C.ar    1  UNL1        0.2194
     13 N         140.0158  142.0441  169.3289 N.ar    1  UNL1       -0.2979
     14 H         139.0447  143.5374  172.3875 H       1  UNL1        0.1451
     15 H         138.5660  144.0502  170.8333 H       1  UNL1        0.1451
     16 H         139.5888  142.5495  168.5999 H       1  UNL1        0.1713
     17 C         143.8224  138.7621  163.3008 C.3     1  UNL1        0.0768
     18 C         144.7511  139.7172  163.9903 C.3     1  UNL1        0.0437
     19 C         144.5064  141.1946  163.9051 C.ar    1  UNL1       -0.0207
     20 C         144.7182  141.9163  162.6073 C.ar    1  UNL1       -0.0034
     21 C         144.4734  143.3937  162.5220 C.ar    1  UNL1        0.0111
     22 C         144.0169  144.1495  163.7347 C.ar    1  UNL1        0.0577
     23 CL        143.7721  145.6269  163.6494 Cl      1  UNL1       -0.0822
     24 C         143.8050  143.4278  165.0325 C.ar    1  UNL1        0.0111
     25 C         144.0498  141.9503  165.1176 C.ar    1  UNL1       -0.0034
     26 C         141.6767  137.2976  163.3355 C.3     1  UNL1        0.1019
     27 C         140.4443  137.7017  162.5820 C.3     1  UNL1        0.1312
     28 C         140.4075  138.2906  161.2029 C.3     1  UNL1        0.0336
     29 C         138.9728  138.5408  160.8438 C.3     1  UNL1        0.0346
     30 C         138.1229  138.1065  162.0010 C.3     1  UNL1        0.1422
     31 O         139.0323  137.5880  163.0752 O.3     1  UNL1       -0.3548
@<TRIPOS>BOND
     1     8     9    1
     2     9    10   ar
     3    10    11   ar
     4    11    12   ar
     5    12     2    1
     6     2     3    1
     7     3     4    1
     8     4     5    1
     9     5     1    1
    10     1    17    1
    11    17    18    1
    12    18    19    1
    13    19    20   ar
    14    20    21   ar
    15    21    22   ar
    16    22    23    1
    17    22    24   ar
    18    24    25   ar
    19     1    26    1
    20    26    27    1
    21    27    28    1
    22    28    29    1
    23    29    30    1
    24    30    31    1
    25     5     6    1
    26     6     7    1
    27    12    13   ar
    28    13     9   ar
    29     7     2    1
    30    25    19   ar
    31    31    27    1
    32     8    14    1
    33     8    15    1
    34    13    16    1
@<TRIPOS>MOLECULE
*****
 31 34 0 0 0
SMALL
GASTEIGER

@<TRIPOS>ATOM
      1 N         139.0373  142.8120  164.5961 N.3     1  UNL1       -0.2715
      2 N         140.4567  144.5221  160.6832 N.pl3   1  UNL1       -0.2784
      3 C         139.8143  145.4151  161.7029 C.3     1  UNL1        0.0950
      4 C         139.3412  144.8450  163.0072 C.3     1  UNL1        0.0375
      5 C         139.5105  143.3820  163.2917 C.3     1  UNL1        0.0610
      6 C         140.1528  142.4891  162.2720 C.3     1  UNL1        0.0375
      7 C         140.6260  143.0591  160.9678 C.3     1  UNL1        0.0950
      8 N         140.5215  146.9206  155.9796 N.pl3   1  UNL1       -0.3277
      9 C         140.9597  146.1946  157.2169 C.ar    1  UNL1        0.2131
     10 N         142.3565  145.7439  157.5267 N.ar    1  UNL1       -0.1121
     11 N         142.3381  145.0626  158.8628 N.ar    1  UNL1       -0.1117
     12 C         140.9299  145.0921  159.3789 C.ar    1  UNL1        0.2194
     13 N         140.0781  145.7917  158.3616 N.ar    1  UNL1       -0.2979
     14 H         141.1781  147.1420  155.2802 H       1  UNL1        0.1451
     15 H         139.5773  147.1756  155.8668 H       1  UNL1        0.1451
     16 H         139.1102  145.9574  158.4328 H       1  UNL1        0.1713
     17 C         139.6362  143.2909  165.8852 C.3     1  UNL1        0.0768
     18 C         140.4862  142.3670  166.7062 C.3     1  UNL1        0.0437
     19 C         141.6507  141.6614  166.0769 C.ar    1  UNL1       -0.0207
     20 C         142.7044  142.4489  165.3560 C.ar    1  UNL1       -0.0034
     21 C         143.8688  141.7433  164.7267 C.ar    1  UNL1        0.0111
     22 C         143.9797  140.2501  164.8182 C.ar    1  UNL1        0.0577
     23 CL        145.1441  139.5445  164.1889 Cl      1  UNL1       -0.0822
     24 C         142.9260  139.4627  165.5391 C.ar    1  UNL1        0.0111
     25 C         141.7615  140.1684  166.1685 C.ar    1  UNL1       -0.0034
     26 C         137.9651  141.7631  164.6113 C.3     1  UNL1        0.1019
     27 C         138.3356  140.3134  164.7163 C.3     1  UNL1        0.1312
     28 C         138.1450  139.4396  165.9205 C.3     1  UNL1        0.0336
     29 C         138.6534  138.0691  165.5840 C.3     1  UNL1        0.0346
     30 C         139.1581  138.0959  164.1717 C.3     1  UNL1        0.1422
     31 O         138.9617  139.4829  163.6354 O.3     1  UNL1       -0.3548
@<TRIPOS>BOND
     1     8     9    1
     2     9    10   ar
     3    10    11   ar
     4    11    12   ar
     5    12     2    1
     6     2     3    1
     7     3     4    1
     8     4     5    1
     9     5     1    1
    10     1    17    1
    11    17    18    1
    12    18    19    1
    13    19    20   ar
    14    20    21   ar
    15    21    22   ar
    16    22    23    1
    17    22    24   ar
    18    24    25   ar
    19     1    26    1
    20    26    27    1
    21    27    28    1
    22    28    29    1
    23    29    30    1
    24    30    31    1
    25     5     6    1
    26     6     7    1
    27    12    13   ar
    28    13     9   ar
    29     7     2    1
    30    25    19   ar
    31    31    27    1
    32     8    14    1
    33     8    15    1
    34    13    16    1
