@<TRIPOS>MOLECULE
*****
 40 42 0 0 0
SMALL
GASTEIGER

@<TRIPOS>ATOM
      1 C         142.2946  138.4004  159.5482 C.3     1  UNL1        0.2016
      2 C         142.5725  137.7616  160.8766 C.3     1  UNL1        0.0679
      3 C         141.4935  137.6938  161.9165 C.3     1  UNL1        0.0973
      4 N         140.1368  138.2647  161.6279 N.am    1  UNL1       -0.2762
      5 C         139.0579  138.1968  162.6678 C.2     1  UNL1        0.2301
      6 O         137.7011  138.7677  162.3793 O.2     1  UNL1       -0.2745
      7 C         139.8589  138.9034  160.2995 C.3     1  UNL1        0.1323
      8 C         140.9378  138.9712  159.2596 C.3     1  UNL1        0.2202
      9 F         140.6599  139.6100  157.9311 F       1  UNL1       -0.2316
     10 O         143.3735  138.4682  158.5083 O.3     1  UNL1       -0.4760
     11 C         142.5439  135.6221  155.8698 C.ar    1  UNL1        0.1417
     12 C         142.8533  136.3290  154.5836 C.ar    1  UNL1        0.0373
     13 C         143.3362  137.7490  154.6056 C.ar    1  UNL1        0.0107
     14 C         143.5096  138.4621  155.9138 C.ar    1  UNL1        0.0872
     15 C         143.2001  137.7552  157.2000 C.ar    1  UNL1        0.1458
     16 C         142.7172  136.3352  157.1780 C.ar    1  UNL1        0.0739
     17 C         143.9924  139.8821  155.9357 C.2     1  UNL1        0.2457
     18 N         145.2634  140.2311  156.6517 N.am    1  UNL1       -0.3252
     19 O         143.2042  140.9531  155.2418 O.2     1  UNL1       -0.2703
     20 H         145.7808  139.5281  157.1072 H       1  UNL1        0.1453
     21 H         145.5803  141.1631  156.6661 H       1  UNL1        0.1453
     22 O         142.0610  134.2021  155.8479 O.3     1  UNL1       -0.4728
     23 C         142.6801  133.1852  156.7604 C.3     1  UNL1        0.2318
     24 C         144.4899  133.1679  157.8669 C.3     1  UNL1        0.0332
     25 C         144.0754  132.6982  156.5039 C.3     1  UNL1        0.1286
     26 C         143.6610  132.2285  155.1410 C.3     1  UNL1        0.0332
     27 O         145.4708  132.2112  156.2474 O.3     1  UNL1       -0.3831
     28 H         146.0982  132.9365  156.3926 H       1  UNL1        0.2104
     29 C         139.3358  137.5581  163.9963 C.3     1  UNL1        0.1116
     30 C         139.7531  138.4041  165.1626 C.ar    1  UNL1       -0.0129
     31 C         138.7160  138.9779  166.0820 C.ar    1  UNL1       -0.0007
     32 C         139.1332  139.8239  167.2482 C.ar    1  UNL1        0.0369
     33 C         140.5875  140.0960  167.4951 C.ar    1  UNL1        0.1468
     34 C         141.6246  139.5221  166.5758 C.ar    1  UNL1        0.0369
     35 C         141.2073  138.6762  165.4095 C.ar    1  UNL1       -0.0007
     36 O         141.0048  140.9420  168.6615 O.3     1  UNL1       -0.4045
     37 C         140.5385  142.3642  168.7613 C.3     1  UNL1        0.5753
     38 F         140.0722  143.7864  168.8611 F       1  UNL1       -0.1328
     39 F         141.5335  142.7640  167.7124 F       1  UNL1       -0.1328
     40 F         139.5435  141.9643  169.8101 F       1  UNL1       -0.1328
@<TRIPOS>BOND
     1    24    25    1
     2    25    26    1
     3    25    27    1
     4    25    23    1
     5    23    22    1
     6    22    11    1
     7    11    12   ar
     8    12    13   ar
     9    13    14   ar
    10    14    17    1
    11    17    18   am
    12    17    19    2
    13    14    15   ar
    14    15    10    1
    15     1    10    1
    16     1     2    1
    17     2     3    1
    18     3     4    1
    19     4     5   am
    20     5     6    2
    21     5    29    1
    22    29    30    1
    23    30    31   ar
    24    31    32   ar
    25    32    33   ar
    26    33    36    1
    27    36    37    1
    28    37    38    1
    29    37    39    1
    30    37    40    1
    31    33    34   ar
    32    34    35   ar
    33     4     7    1
    34     7     8    1
    35     8     9    1
    36    15    16   ar
    37    16    11   ar
    38     8     1    1
    39    35    30   ar
    40    27    28    1
    41    18    20    1
    42    18    21    1
@<TRIPOS>MOLECULE
*****
 40 42 0 0 0
SMALL
GASTEIGER

@<TRIPOS>ATOM
      1 C         140.8765  138.6773  161.5438 C.3     1  UNL1        0.2016
      2 C         140.4341  138.3497  162.9391 C.3     1  UNL1        0.0679
      3 C         141.4236  138.3791  164.0661 C.3     1  UNL1        0.0973
      4 N         142.8556  138.7361  163.7977 N.am    1  UNL1       -0.2762
      5 C         143.8450  138.7655  164.9246 C.2     1  UNL1        0.2301
      6 O         145.2770  139.1226  164.6563 O.2     1  UNL1       -0.2745
      7 C         143.2980  139.0638  162.4024 C.3     1  UNL1        0.1323
      8 C         142.3085  139.0344  161.2755 C.3     1  UNL1        0.2202
      9 F         142.7510  139.3621  159.8802 F       1  UNL1       -0.2316
     10 O         139.8871  138.6479  160.4169 O.3     1  UNL1       -0.4760
     11 C         138.5841  142.3838  160.1078 C.ar    1  UNL1        0.1417
     12 C         138.4049  142.4996  158.6231 C.ar    1  UNL1        0.0373
     13 C         138.7197  141.3315  157.7363 C.ar    1  UNL1        0.0107
     14 C         139.2137  140.0477  158.3342 C.ar    1  UNL1        0.0872
     15 C         139.3930  139.9319  159.8189 C.ar    1  UNL1        0.1458
     16 C         139.0782  141.1000  160.7057 C.ar    1  UNL1        0.0739
     17 C         139.5286  138.8796  157.4474 C.2     1  UNL1        0.2457
     18 N         140.7418  138.0395  157.7160 N.am    1  UNL1       -0.3252
     19 O         138.6301  138.5515  156.2919 O.2     1  UNL1       -0.2703
     20 H         141.3315  138.2547  158.4744 H       1  UNL1        0.1453
     21 H         140.9484  137.2728  157.1340 H       1  UNL1        0.1453
     22 O         138.2693  143.5519  160.9946 O.3     1  UNL1       -0.4728
     23 C         137.9814  143.3323  162.4502 C.3     1  UNL1        0.2318
     24 C         139.1129  145.1258  162.3935 C.3     1  UNL1        0.0332
     25 C         138.6027  144.2275  163.4811 C.3     1  UNL1        0.1286
     26 C         138.0925  143.3293  164.5686 C.3     1  UNL1        0.0332
     27 O         139.2241  145.1227  164.5119 O.3     1  UNL1       -0.3831
     28 H         140.1668  145.2374  164.3145 H       1  UNL1        0.2104
     29 C         143.4026  138.4378  166.3199 C.3     1  UNL1        0.1116
     30 C         143.0004  139.5380  167.2570 C.ar    1  UNL1       -0.0129
     31 C         142.6549  139.2206  168.6818 C.ar    1  UNL1       -0.0007
     32 C         142.2527  140.3207  169.6189 C.ar    1  UNL1        0.0369
     33 C         142.1961  141.7380  169.1312 C.ar    1  UNL1        0.1468
     34 C         142.5417  142.0553  167.7065 C.ar    1  UNL1        0.0369
     35 C         142.9438  140.9553  166.7694 C.ar    1  UNL1       -0.0007
     36 O         141.7940  142.8381  170.0683 O.3     1  UNL1       -0.4045
     37 C         140.3618  142.9761  170.4922 C.3     1  UNL1        0.5753
     38 F         138.9295  143.1140  170.9162 F       1  UNL1       -0.1328
     39 F         140.0703  143.7658  169.2507 F       1  UNL1       -0.1328
     40 F         140.6532  142.1863  171.7338 F       1  UNL1       -0.1328
@<TRIPOS>BOND
     1    24    25    1
     2    25    26    1
     3    25    27    1
     4    25    23    1
     5    23    22    1
     6    22    11    1
     7    11    12   ar
     8    12    13   ar
     9    13    14   ar
    10    14    17    1
    11    17    18   am
    12    17    19    2
    13    14    15   ar
    14    15    10    1
    15     1    10    1
    16     1     2    1
    17     2     3    1
    18     3     4    1
    19     4     5   am
    20     5     6    2
    21     5    29    1
    22    29    30    1
    23    30    31   ar
    24    31    32   ar
    25    32    33   ar
    26    33    36    1
    27    36    37    1
    28    37    38    1
    29    37    39    1
    30    37    40    1
    31    33    34   ar
    32    34    35   ar
    33     4     7    1
    34     7     8    1
    35     8     9    1
    36    15    16   ar
    37    16    11   ar
    38     8     1    1
    39    35    30   ar
    40    27    28    1
    41    18    20    1
    42    18    21    1
@<TRIPOS>MOLECULE
*****
 40 42 0 0 0
SMALL
GASTEIGER

@<TRIPOS>ATOM
      1 C         138.7420  140.7075  159.9116 C.3     1  UNL1        0.2016
      2 C         137.9509  140.7229  161.1859 C.3     1  UNL1        0.0679
      3 C         138.2741  139.7502  162.2812 C.3     1  UNL1        0.0973
      4 N         139.3884  138.7621  162.1020 N.am    1  UNL1       -0.2762
      5 C         139.7115  137.7895  163.1972 C.2     1  UNL1        0.2301
      6 O         140.8258  136.8014  163.0181 O.2     1  UNL1       -0.2745
      7 C         140.1795  138.7467  160.8277 C.3     1  UNL1        0.1323
      8 C         139.8563  139.7194  159.7325 C.3     1  UNL1        0.2202
      9 F         140.6474  139.7040  158.4582 F       1  UNL1       -0.2316
     10 O         138.4188  141.6802  158.8164 O.3     1  UNL1       -0.4760
     11 C         141.0125  144.5943  159.5450 C.ar    1  UNL1        0.1417
     12 C         140.9477  145.3601  158.2569 C.ar    1  UNL1        0.0373
     13 C         140.0399  144.8992  157.1552 C.ar    1  UNL1        0.0107
     14 C         139.1970  143.6726  157.3417 C.ar    1  UNL1        0.0872
     15 C         139.2618  142.9068  158.6299 C.ar    1  UNL1        0.1458
     16 C         140.1695  143.3677  159.7315 C.ar    1  UNL1        0.0739
     17 C         138.2893  143.2117  156.2401 C.2     1  UNL1        0.2457
     18 N         136.8493  142.9095  156.5318 N.am    1  UNL1       -0.3252
     19 O         138.8215  143.0531  154.8467 O.2     1  UNL1       -0.2703
     20 H         136.5000  143.0136  157.4463 H       1  UNL1        0.1453
     21 H         136.2536  142.6071  155.8087 H       1  UNL1        0.1453
     22 O         141.9202  145.0552  160.6467 O.3     1  UNL1       -0.4728
     23 C         142.1564  144.1779  161.8402 C.3     1  UNL1        0.2318
     24 C         144.1912  143.9744  162.4043 C.3     1  UNL1        0.0332
     25 C         142.9956  144.6731  162.9807 C.3     1  UNL1        0.1286
     26 C         141.7999  145.3718  163.5570 C.3     1  UNL1        0.0332
     27 O         143.8347  145.1683  164.1211 O.3     1  UNL1       -0.3831
     28 H         144.2709  144.4166  164.5518 H       1  UNL1        0.2104
     29 C         138.9204  137.8049  164.4715 C.3     1  UNL1        0.1116
     30 C         139.3972  138.6149  165.6406 C.ar    1  UNL1       -0.0129
     31 C         138.4524  138.9491  166.7567 C.ar    1  UNL1       -0.0007
     32 C         138.9292  139.7591  167.9256 C.ar    1  UNL1        0.0369
     33 C         140.3507  140.2350  167.9785 C.ar    1  UNL1        0.1468
     34 C         141.2955  139.9008  166.8624 C.ar    1  UNL1        0.0369
     35 C         140.8187  139.0908  165.6934 C.ar    1  UNL1       -0.0007
     36 O         140.8275  141.0450  169.1475 O.3     1  UNL1       -0.4045
     37 C         140.4881  142.5033  169.2378 C.3     1  UNL1        0.5753
     38 F         140.1486  143.9616  169.3281 F       1  UNL1       -0.1328
     39 F         141.6704  142.8319  168.3752 F       1  UNL1       -0.1328
     40 F         139.3058  142.1747  170.1005 F       1  UNL1       -0.1328
@<TRIPOS>BOND
     1    24    25    1
     2    25    26    1
     3    25    27    1
     4    25    23    1
     5    23    22    1
     6    22    11    1
     7    11    12   ar
     8    12    13   ar
     9    13    14   ar
    10    14    17    1
    11    17    18   am
    12    17    19    2
    13    14    15   ar
    14    15    10    1
    15     1    10    1
    16     1     2    1
    17     2     3    1
    18     3     4    1
    19     4     5   am
    20     5     6    2
    21     5    29    1
    22    29    30    1
    23    30    31   ar
    24    31    32   ar
    25    32    33   ar
    26    33    36    1
    27    36    37    1
    28    37    38    1
    29    37    39    1
    30    37    40    1
    31    33    34   ar
    32    34    35   ar
    33     4     7    1
    34     7     8    1
    35     8     9    1
    36    15    16   ar
    37    16    11   ar
    38     8     1    1
    39    35    30   ar
    40    27    28    1
    41    18    20    1
    42    18    21    1
@<TRIPOS>MOLECULE
*****
 40 42 0 0 0
SMALL
GASTEIGER

@<TRIPOS>ATOM
      1 C         143.3661  138.9807  160.4165 C.3     1  UNL1        0.2016
      2 C         144.3124  139.2654  161.5449 C.3     1  UNL1        0.0679
      3 C         143.9152  138.9456  162.9556 C.3     1  UNL1        0.0973
      4 N         142.5717  138.3412  163.2378 N.am    1  UNL1       -0.2762
      5 C         142.1745  138.0214  164.6484 C.2     1  UNL1        0.2301
      6 O         140.8309  137.4170  164.9307 O.2     1  UNL1       -0.2745
      7 C         141.6253  138.0566  162.1093 C.3     1  UNL1        0.1323
      8 C         142.0225  138.3763  160.6987 C.3     1  UNL1        0.2202
      9 F         141.0762  138.0917  159.5702 F       1  UNL1       -0.2316
     10 O         143.7633  139.3005  159.0058 O.3     1  UNL1       -0.4760
     11 C         142.9695  143.1862  158.8585 C.ar    1  UNL1        0.1417
     12 C         143.2331  143.4746  157.4103 C.ar    1  UNL1        0.0373
     13 C         143.6734  142.3717  156.4940 C.ar    1  UNL1        0.0107
     14 C         143.8501  140.9804  157.0258 C.ar    1  UNL1        0.0872
     15 C         143.5865  140.6919  158.4739 C.ar    1  UNL1        0.1458
     16 C         143.1462  141.7948  159.3903 C.ar    1  UNL1        0.0739
     17 C         144.2904  139.8775  156.1094 C.2     1  UNL1        0.2457
     18 N         145.7517  139.6459  155.8626 N.am    1  UNL1       -0.3252
     19 O         143.2694  139.0062  155.4398 O.2     1  UNL1       -0.2703
     20 H         146.4218  140.2178  156.3020 H       1  UNL1        0.1453
     21 H         146.0407  138.9220  155.2611 H       1  UNL1        0.1453
     22 O         142.5292  144.2891  159.7749 O.3     1  UNL1       -0.4728
     23 C         141.8252  143.9617  161.0583 C.3     1  UNL1        0.2318
     24 C         142.3328  144.6818  162.9880 C.3     1  UNL1        0.0332
     25 C         141.3272  145.0657  161.9433 C.3     1  UNL1        0.1286
     26 C         140.3216  145.4496  160.8986 C.3     1  UNL1        0.0332
     27 O         140.8293  146.1697  162.8283 O.3     1  UNL1       -0.3831
     28 H         140.5854  145.8053  163.6936 H       1  UNL1        0.2104
     29 C         143.1209  138.3060  165.7769 C.3     1  UNL1        0.1116
     30 C         142.8592  139.4566  166.7031 C.ar    1  UNL1       -0.0129
     31 C         142.6579  139.2088  168.1687 C.ar    1  UNL1       -0.0007
     32 C         142.3962  140.3593  169.0949 C.ar    1  UNL1        0.0369
     33 C         142.3358  141.7576  168.5554 C.ar    1  UNL1        0.1468
     34 C         142.5371  142.0054  167.0898 C.ar    1  UNL1        0.0369
     35 C         142.7988  140.8549  166.1636 C.ar    1  UNL1       -0.0007
     36 O         142.0741  142.9082  169.4816 O.3     1  UNL1       -0.4045
     37 C         140.7232  143.0704  170.1130 C.3     1  UNL1        0.5753
     38 F         139.3723  143.2327  170.7444 F       1  UNL1       -0.1328
     39 F         141.2097  142.3543  171.3380 F       1  UNL1       -0.1328
     40 F         140.2367  143.7865  168.8881 F       1  UNL1       -0.1328
@<TRIPOS>BOND
     1    24    25    1
     2    25    26    1
     3    25    27    1
     4    25    23    1
     5    23    22    1
     6    22    11    1
     7    11    12   ar
     8    12    13   ar
     9    13    14   ar
    10    14    17    1
    11    17    18   am
    12    17    19    2
    13    14    15   ar
    14    15    10    1
    15     1    10    1
    16     1     2    1
    17     2     3    1
    18     3     4    1
    19     4     5   am
    20     5     6    2
    21     5    29    1
    22    29    30    1
    23    30    31   ar
    24    31    32   ar
    25    32    33   ar
    26    33    36    1
    27    36    37    1
    28    37    38    1
    29    37    39    1
    30    37    40    1
    31    33    34   ar
    32    34    35   ar
    33     4     7    1
    34     7     8    1
    35     8     9    1
    36    15    16   ar
    37    16    11   ar
    38     8     1    1
    39    35    30   ar
    40    27    28    1
    41    18    20    1
    42    18    21    1
@<TRIPOS>MOLECULE
*****
 40 42 0 0 0
SMALL
GASTEIGER

@<TRIPOS>ATOM
      1 C         141.9186  138.6487  159.3663 C.3     1  UNL1        0.2016
      2 C         141.0248  138.0568  160.4156 C.3     1  UNL1        0.0679
      3 C         141.4344  138.0949  161.8581 C.3     1  UNL1        0.0973
      4 N         142.7377  138.7248  162.2514 N.am    1  UNL1       -0.2762
      5 C         143.1471  138.7629  163.6939 C.2     1  UNL1        0.2301
      6 O         144.4505  139.3928  164.0872 O.2     1  UNL1       -0.2745
      7 C         143.6315  139.3166  161.2021 C.3     1  UNL1        0.1323
      8 C         143.2220  139.2786  159.7597 C.3     1  UNL1        0.2202
      9 F         144.1158  139.8704  158.7104 F       1  UNL1       -0.2316
     10 O         141.5092  138.6106  157.9238 O.3     1  UNL1       -0.4760
     11 C         142.9840  135.1826  156.5733 C.ar    1  UNL1        0.1417
     12 C         141.9430  134.8052  155.5615 C.ar    1  UNL1        0.0373
     13 C         140.7574  135.6963  155.3370 C.ar    1  UNL1        0.0107
     14 C         140.6128  136.9647  156.1245 C.ar    1  UNL1        0.0872
     15 C         141.6538  137.3421  157.1363 C.ar    1  UNL1        0.1458
     16 C         142.8394  136.4511  157.3608 C.ar    1  UNL1        0.0739
     17 C         139.4272  137.8558  155.9000 C.2     1  UNL1        0.2457
     18 N         139.5732  139.3436  156.0228 N.am    1  UNL1       -0.3252
     19 O         138.0955  137.2590  155.5529 O.2     1  UNL1       -0.2703
     20 H         140.4472  139.7352  156.2507 H       1  UNL1        0.1453
     21 H         138.7951  139.9284  155.8755 H       1  UNL1        0.1453
     22 O         144.1696  134.2916  156.7978 O.3     1  UNL1       -0.4728
     23 C         144.1584  132.8837  156.2803 C.3     1  UNL1        0.2318
     24 C         142.8208  131.2588  156.5454 C.3     1  UNL1        0.0332
     25 C         144.0637  131.7333  157.2381 C.3     1  UNL1        0.1286
     26 C         145.3067  132.2078  157.9309 C.3     1  UNL1        0.0332
     27 O         143.9691  130.5828  158.1960 O.3     1  UNL1       -0.3831
     28 H         143.0939  130.5816  158.6143 H       1  UNL1        0.2104
     29 C         142.2534  138.1710  164.7431 C.3     1  UNL1        0.1116
     30 C         141.9325  138.9524  165.9828 C.ar    1  UNL1       -0.0129
     31 C         140.6263  139.6815  166.0926 C.ar    1  UNL1       -0.0007
     32 C         140.3054  140.4628  167.3322 C.ar    1  UNL1        0.0369
     33 C         141.2908  140.5151  168.4618 C.ar    1  UNL1        0.1468
     34 C         142.5971  139.7860  168.3519 C.ar    1  UNL1        0.0369
     35 C         142.9180  139.0047  167.1124 C.ar    1  UNL1       -0.0007
     36 O         140.9700  141.2964  169.7015 O.3     1  UNL1       -0.4045
     37 C         140.6272  142.7534  169.6020 C.3     1  UNL1        0.5753
     38 F         140.2845  144.2103  169.5025 F       1  UNL1       -0.1328
     39 F         141.9164  143.0072  168.8783 F       1  UNL1       -0.1328
     40 F         139.3381  142.4995  170.3257 F       1  UNL1       -0.1328
@<TRIPOS>BOND
     1    24    25    1
     2    25    26    1
     3    25    27    1
     4    25    23    1
     5    23    22    1
     6    22    11    1
     7    11    12   ar
     8    12    13   ar
     9    13    14   ar
    10    14    17    1
    11    17    18   am
    12    17    19    2
    13    14    15   ar
    14    15    10    1
    15     1    10    1
    16     1     2    1
    17     2     3    1
    18     3     4    1
    19     4     5   am
    20     5     6    2
    21     5    29    1
    22    29    30    1
    23    30    31   ar
    24    31    32   ar
    25    32    33   ar
    26    33    36    1
    27    36    37    1
    28    37    38    1
    29    37    39    1
    30    37    40    1
    31    33    34   ar
    32    34    35   ar
    33     4     7    1
    34     7     8    1
    35     8     9    1
    36    15    16   ar
    37    16    11   ar
    38     8     1    1
    39    35    30   ar
    40    27    28    1
    41    18    20    1
    42    18    21    1
@<TRIPOS>MOLECULE
*****
 40 42 0 0 0
SMALL
GASTEIGER

@<TRIPOS>ATOM
      1 C         142.5432  142.6486  161.8467 C.3     1  UNL1        0.2016
      2 C         141.6274  141.9348  160.8970 C.3     1  UNL1        0.0679
      3 C         142.1367  141.4842  159.5599 C.3     1  UNL1        0.0973
      4 N         143.5617  141.7475  159.1726 N.am    1  UNL1       -0.2762
      5 C         144.0710  141.2970  157.8355 C.2     1  UNL1        0.2301
      6 O         145.4960  141.5603  157.4481 O.2     1  UNL1       -0.2745
      7 C         144.4775  142.4613  160.1222 C.3     1  UNL1        0.1323
      8 C         143.9682  142.9119  161.4593 C.3     1  UNL1        0.2202
      9 F         144.8840  143.6257  162.4090 F       1  UNL1       -0.2316
     10 O         142.0340  143.0991  163.1837 O.3     1  UNL1       -0.4760
     11 C         139.4808  140.5650  164.8600 C.ar    1  UNL1        0.1417
     12 C         138.2192  141.3760  164.8356 C.ar    1  UNL1        0.0373
     13 C         138.2292  142.7614  164.2605 C.ar    1  UNL1        0.0107
     14 C         139.5007  143.3357  163.7099 C.ar    1  UNL1        0.0872
     15 C         140.7623  142.5247  163.7343 C.ar    1  UNL1        0.1458
     16 C         140.7523  141.1394  164.3094 C.ar    1  UNL1        0.0739
     17 C         139.5107  144.7211  163.1348 C.2     1  UNL1        0.2457
     18 N         140.6458  145.6523  163.4416 N.am    1  UNL1       -0.3252
     19 O         138.3855  145.1752  162.2529 O.2     1  UNL1       -0.2703
     20 H         141.3843  145.3543  164.0204 H       1  UNL1        0.1453
     21 H         140.6524  146.5616  163.0641 H       1  UNL1        0.1453
     22 O         139.4708  139.1797  165.4351 O.3     1  UNL1       -0.4728
     23 C         139.1221  138.0089  164.5648 C.3     1  UNL1        0.2318
     24 C         139.0534  137.9071  162.4471 C.3     1  UNL1        0.0332
     25 C         140.0716  137.5618  163.4931 C.3     1  UNL1        0.1286
     26 C         141.0897  137.2166  164.5391 C.3     1  UNL1        0.0332
     27 O         141.0211  137.1148  162.4213 O.3     1  UNL1       -0.3831
     28 H         140.5875  136.4521  161.8611 H       1  UNL1        0.2104
     29 C         143.1552  140.5832  156.8859 C.3     1  UNL1        0.1116
     30 C         143.2952  139.1043  156.6779 C.ar    1  UNL1       -0.0129
     31 C         144.1320  138.5817  155.5479 C.ar    1  UNL1       -0.0007
     32 C         144.2720  137.1028  155.3399 C.ar    1  UNL1        0.0369
     33 C         143.5752  136.1465  156.2619 C.ar    1  UNL1        0.1468
     34 C         142.7385  136.6691  157.3918 C.ar    1  UNL1        0.0369
     35 C         142.5984  138.1480  157.5998 C.ar    1  UNL1       -0.0007
     36 O         143.7152  134.6676  156.0539 O.3     1  UNL1       -0.4045
     37 C         142.4918  133.8091  155.9257 C.3     1  UNL1        0.5753
     38 F         141.2685  132.9507  155.7975 F       1  UNL1       -0.1328
     39 F         142.8007  133.1715  157.2478 F       1  UNL1       -0.1328
     40 F         142.1830  134.4468  154.6036 F       1  UNL1       -0.1328
@<TRIPOS>BOND
     1    24    25    1
     2    25    26    1
     3    25    27    1
     4    25    23    1
     5    23    22    1
     6    22    11    1
     7    11    12   ar
     8    12    13   ar
     9    13    14   ar
    10    14    17    1
    11    17    18   am
    12    17    19    2
    13    14    15   ar
    14    15    10    1
    15     1    10    1
    16     1     2    1
    17     2     3    1
    18     3     4    1
    19     4     5   am
    20     5     6    2
    21     5    29    1
    22    29    30    1
    23    30    31   ar
    24    31    32   ar
    25    32    33   ar
    26    33    36    1
    27    36    37    1
    28    37    38    1
    29    37    39    1
    30    37    40    1
    31    33    34   ar
    32    34    35   ar
    33     4     7    1
    34     7     8    1
    35     8     9    1
    36    15    16   ar
    37    16    11   ar
    38     8     1    1
    39    35    30   ar
    40    27    28    1
    41    18    20    1
    42    18    21    1
@<TRIPOS>MOLECULE
*****
 40 42 0 0 0
SMALL
GASTEIGER

@<TRIPOS>ATOM
      1 C         138.1227  141.2091  161.5074 C.3     1  UNL1        0.2016
      2 C         137.8922  141.8311  162.8528 C.3     1  UNL1        0.0679
      3 C         137.9862  140.9923  164.0928 C.3     1  UNL1        0.0973
      4 N         138.3105  139.5317  163.9875 N.am    1  UNL1       -0.2762
      5 C         138.4045  138.6930  165.2276 C.2     1  UNL1        0.2301
      6 O         138.7289  137.2322  165.1223 O.2     1  UNL1       -0.2745
      7 C         138.5410  138.9096  162.6422 C.3     1  UNL1        0.1323
      8 C         138.4470  139.7483  161.4021 C.3     1  UNL1        0.2202
      9 F         138.6775  139.1263  160.0568 F       1  UNL1       -0.2316
     10 O         138.0287  142.0478  160.2674 O.3     1  UNL1       -0.4760
     11 C         141.4197  144.1074  160.1716 C.ar    1  UNL1        0.1417
     12 C         141.6801  144.1562  158.6952 C.ar    1  UNL1        0.0373
     13 C         140.7234  143.5022  157.7428 C.ar    1  UNL1        0.0107
     14 C         139.5063  142.7994  158.2669 C.ar    1  UNL1        0.0872
     15 C         139.2459  142.7506  159.7432 C.ar    1  UNL1        0.1458
     16 C         140.2026  143.4046  160.6956 C.ar    1  UNL1        0.0739
     17 C         138.5496  142.1453  157.3145 C.2     1  UNL1        0.2457
     18 N         137.1064  142.5537  157.3026 N.am    1  UNL1       -0.3252
     19 O         139.0362  141.0829  156.3740 O.2     1  UNL1       -0.2703
     20 H         136.7870  143.2510  157.9199 H       1  UNL1        0.1453
     21 H         136.4785  142.1244  156.6776 H       1  UNL1        0.1453
     22 O         142.3764  144.7615  161.1239 O.3     1  UNL1       -0.4728
     23 C         142.0350  144.8588  162.5813 C.3     1  UNL1        0.2318
     24 C         141.5279  143.6516  164.2502 C.3     1  UNL1        0.0332
     25 C         142.8100  144.0613  163.5880 C.3     1  UNL1        0.1286
     26 C         144.0920  144.4710  162.9257 C.3     1  UNL1        0.0332
     27 O         143.5849  143.2637  164.5947 O.3     1  UNL1       -0.3831
     28 H         143.3351  143.5425  165.4896 H       1  UNL1        0.2104
     29 C         138.1740  139.3150  166.5729 C.3     1  UNL1        0.1116
     30 C         139.3425  139.7164  167.4237 C.ar    1  UNL1       -0.0129
     31 C         140.6836  139.9504  166.7938 C.ar    1  UNL1       -0.0007
     32 C         141.8520  140.3518  167.6445 C.ar    1  UNL1        0.0369
     33 C         141.6793  140.5191  169.1250 C.ar    1  UNL1        0.1468
     34 C         140.3382  140.2851  169.7549 C.ar    1  UNL1        0.0369
     35 C         139.1698  139.8837  168.9043 C.ar    1  UNL1       -0.0007
     36 O         142.8477  140.9205  169.9758 O.3     1  UNL1       -0.4045
     37 C         143.0340  142.3572  170.3645 C.3     1  UNL1        0.5753
     38 F         143.2202  143.7939  170.7533 F       1  UNL1       -0.1328
     39 F         144.0028  142.5376  169.2337 F       1  UNL1       -0.1328
     40 F         142.0652  142.1768  171.4954 F       1  UNL1       -0.1328
@<TRIPOS>BOND
     1    24    25    1
     2    25    26    1
     3    25    27    1
     4    25    23    1
     5    23    22    1
     6    22    11    1
     7    11    12   ar
     8    12    13   ar
     9    13    14   ar
    10    14    17    1
    11    17    18   am
    12    17    19    2
    13    14    15   ar
    14    15    10    1
    15     1    10    1
    16     1     2    1
    17     2     3    1
    18     3     4    1
    19     4     5   am
    20     5     6    2
    21     5    29    1
    22    29    30    1
    23    30    31   ar
    24    31    32   ar
    25    32    33   ar
    26    33    36    1
    27    36    37    1
    28    37    38    1
    29    37    39    1
    30    37    40    1
    31    33    34   ar
    32    34    35   ar
    33     4     7    1
    34     7     8    1
    35     8     9    1
    36    15    16   ar
    37    16    11   ar
    38     8     1    1
    39    35    30   ar
    40    27    28    1
    41    18    20    1
    42    18    21    1
@<TRIPOS>MOLECULE
*****
 40 42 0 0 0
SMALL
GASTEIGER

@<TRIPOS>ATOM
      1 C         138.6394  139.3200  163.2540 C.3     1  UNL1        0.2016
      2 C         139.0838  140.7519  163.2075 C.3     1  UNL1        0.0679
      3 C         139.0307  141.5121  161.9154 C.3     1  UNL1        0.0973
      4 N         138.5332  140.8404  160.6699 N.am    1  UNL1       -0.2762
      5 C         138.4802  141.6006  159.3780 C.2     1  UNL1        0.2301
      6 O         137.9827  140.9289  158.1324 O.2     1  UNL1       -0.2745
      7 C         138.0889  139.4085  160.7164 C.3     1  UNL1        0.1323
      8 C         138.1419  138.6483  162.0084 C.3     1  UNL1        0.2202
      9 F         137.6975  137.2164  162.0548 F       1  UNL1       -0.2316
     10 O         138.6925  138.5598  164.5459 O.3     1  UNL1       -0.4760
     11 C         140.1129  139.9996  167.9606 C.ar    1  UNL1        0.1417
     12 C         141.5855  139.7925  167.7647 C.ar    1  UNL1        0.0373
     13 C         142.0938  139.1746  166.4960 C.ar    1  UNL1        0.0107
     14 C         141.1295  138.7637  165.4231 C.ar    1  UNL1        0.0872
     15 C         139.6569  138.9707  165.6189 C.ar    1  UNL1        0.1458
     16 C         139.1486  139.5887  166.8876 C.ar    1  UNL1        0.0739
     17 C         141.6379  138.1457  164.1543 C.2     1  UNL1        0.2457
     18 N         141.1686  136.7814  163.7441 N.am    1  UNL1       -0.3252
     19 O         142.6155  138.8921  163.2958 O.2     1  UNL1       -0.2703
     20 H         140.5269  136.2915  164.3076 H       1  UNL1        0.1453
     21 H         141.5022  136.3758  162.9114 H       1  UNL1        0.1453
     22 O         139.6045  140.6175  169.2293 O.3     1  UNL1       -0.4728
     23 C         140.0818  141.9775  169.6449 C.3     1  UNL1        0.2318
     24 C         141.6137  143.3823  170.0688 C.3     1  UNL1        0.0332
     25 C         141.1344  142.1113  170.7051 C.3     1  UNL1        0.1286
     26 C         140.6552  140.8403  171.3414 C.3     1  UNL1        0.0332
     27 O         142.1870  142.2452  171.7653 O.3     1  UNL1       -0.3831
     28 H         143.0575  142.3359  171.3470 H       1  UNL1        0.2104
     29 C         138.9245  143.0325  159.3315 C.3     1  UNL1        0.1116
     30 C         140.1521  143.4615  160.0793 C.ar    1  UNL1       -0.0129
     31 C         140.0557  144.5266  161.1310 C.ar    1  UNL1       -0.0007
     32 C         141.2832  144.9556  161.8788 C.ar    1  UNL1        0.0369
     33 C         142.6071  144.3194  161.5748 C.ar    1  UNL1        0.1468
     34 C         142.7035  143.2543  160.5231 C.ar    1  UNL1        0.0369
     35 C         141.4761  142.8253  159.7753 C.ar    1  UNL1       -0.0007
     36 O         143.8347  144.7484  162.3226 O.3     1  UNL1       -0.4045
     37 C         144.0761  144.2500  163.7167 C.3     1  UNL1        0.5753
     38 F         144.3175  143.7517  165.1107 F       1  UNL1       -0.1328
     39 F         143.4799  145.5102  164.2704 F       1  UNL1       -0.1328
     40 F         144.6722  142.9899  163.1629 F       1  UNL1       -0.1328
@<TRIPOS>BOND
     1    24    25    1
     2    25    26    1
     3    25    27    1
     4    25    23    1
     5    23    22    1
     6    22    11    1
     7    11    12   ar
     8    12    13   ar
     9    13    14   ar
    10    14    17    1
    11    17    18   am
    12    17    19    2
    13    14    15   ar
    14    15    10    1
    15     1    10    1
    16     1     2    1
    17     2     3    1
    18     3     4    1
    19     4     5   am
    20     5     6    2
    21     5    29    1
    22    29    30    1
    23    30    31   ar
    24    31    32   ar
    25    32    33   ar
    26    33    36    1
    27    36    37    1
    28    37    38    1
    29    37    39    1
    30    37    40    1
    31    33    34   ar
    32    34    35   ar
    33     4     7    1
    34     7     8    1
    35     8     9    1
    36    15    16   ar
    37    16    11   ar
    38     8     1    1
    39    35    30   ar
    40    27    28    1
    41    18    20    1
    42    18    21    1
@<TRIPOS>MOLECULE
*****
 40 42 0 0 0
SMALL
GASTEIGER

@<TRIPOS>ATOM
      1 C         139.4749  141.9677  159.0958 C.3     1  UNL1        0.2016
      2 C         138.2908  142.7511  158.6122 C.3     1  UNL1        0.0679
      3 C         137.4309  142.2070  157.5100 C.3     1  UNL1        0.0973
      4 N         137.7553  140.8795  156.8916 N.am    1  UNL1       -0.2762
      5 C         136.8954  140.3355  155.7895 C.2     1  UNL1        0.2301
      6 O         137.2198  139.0079  155.1710 O.2     1  UNL1       -0.2745
      7 C         138.9394  140.0961  157.3753 C.3     1  UNL1        0.1323
      8 C         139.7993  140.6401  158.4774 C.3     1  UNL1        0.2202
      9 F         140.9834  139.8566  158.9610 F       1  UNL1       -0.2316
     10 O         140.3348  142.5117  160.1979 O.3     1  UNL1       -0.4760
     11 C         138.7132  141.6841  163.7244 C.ar    1  UNL1        0.1417
     12 C         138.6257  143.0558  164.3250 C.ar    1  UNL1        0.0373
     13 C         139.1078  144.2461  163.5500 C.ar    1  UNL1        0.0107
     14 C         139.6775  144.0648  162.1743 C.ar    1  UNL1        0.0872
     15 C         139.7651  142.6931  161.5737 C.ar    1  UNL1        0.1458
     16 C         139.2829  141.5028  162.3487 C.ar    1  UNL1        0.0739
     17 C         140.1596  145.2551  161.3993 C.2     1  UNL1        0.2457
     18 N         141.5398  145.2587  160.8118 N.am    1  UNL1       -0.3252
     19 O         139.2616  146.4418  161.2118 O.2     1  UNL1       -0.2703
     20 H         142.1292  144.4798  160.9349 H       1  UNL1        0.1453
     21 H         141.8562  146.0399  160.3031 H       1  UNL1        0.1453
     22 O         138.2311  140.4938  164.4994 O.3     1  UNL1       -0.4728
     23 C         139.1881  139.7185  165.3556 C.3     1  UNL1        0.2318
     24 C         140.0012  140.6594  167.0741 C.3     1  UNL1        0.0332
     25 C         138.9550  139.6118  166.8335 C.3     1  UNL1        0.1286
     26 C         137.9087  138.5642  166.5929 C.3     1  UNL1        0.0332
     27 O         138.7219  139.5052  168.3114 O.3     1  UNL1       -0.3831
     28 H         139.5632  139.3244  168.7592 H       1  UNL1        0.2104
     29 C         135.7113  141.1189  155.3058 C.3     1  UNL1        0.1116
     30 C         134.3372  140.7884  155.8086 C.ar    1  UNL1       -0.0129
     31 C         133.1321  141.3882  155.1469 C.ar    1  UNL1       -0.0007
     32 C         131.7580  141.0577  155.6495 C.ar    1  UNL1        0.0369
     33 C         131.5891  140.1274  156.8140 C.ar    1  UNL1        0.1468
     34 C         132.7943  139.5275  157.4757 C.ar    1  UNL1        0.0369
     35 C         134.1683  139.8580  156.9730 C.ar    1  UNL1       -0.0007
     36 O         130.2150  139.7968  157.3167 O.3     1  UNL1       -0.4045
     37 C         129.7859  138.3648  157.4400 C.3     1  UNL1        0.5753
     38 F         129.3568  136.9328  157.5632 F       1  UNL1       -0.1328
     39 F         129.7518  138.2463  155.9450 F       1  UNL1       -0.1328
     40 F         129.8199  138.4833  158.9349 F       1  UNL1       -0.1328
@<TRIPOS>BOND
     1    24    25    1
     2    25    26    1
     3    25    27    1
     4    25    23    1
     5    23    22    1
     6    22    11    1
     7    11    12   ar
     8    12    13   ar
     9    13    14   ar
    10    14    17    1
    11    17    18   am
    12    17    19    2
    13    14    15   ar
    14    15    10    1
    15     1    10    1
    16     1     2    1
    17     2     3    1
    18     3     4    1
    19     4     5   am
    20     5     6    2
    21     5    29    1
    22    29    30    1
    23    30    31   ar
    24    31    32   ar
    25    32    33   ar
    26    33    36    1
    27    36    37    1
    28    37    38    1
    29    37    39    1
    30    37    40    1
    31    33    34   ar
    32    34    35   ar
    33     4     7    1
    34     7     8    1
    35     8     9    1
    36    15    16   ar
    37    16    11   ar
    38     8     1    1
    39    35    30   ar
    40    27    28    1
    41    18    20    1
    42    18    21    1
