@<TRIPOS>MOLECULE
*****
 34 37 0 0 0
SMALL
GASTEIGER

@<TRIPOS>ATOM
      1 C         138.0901  140.9724  162.8779 C.ar    1  UNL1        0.1534
      2 C         137.5722  140.0670  163.9558 C.ar    1  UNL1        0.0591
      3 C         138.2447  140.0355  165.2962 C.ar    1  UNL1        0.1072
      4 N         137.7266  139.1301  166.3742 N.ar    1  UNL1       -0.1477
      5 N         138.3991  139.0986  167.7146 N.ar    1  UNL1       -0.1421
      6 C         139.5897  139.9725  167.9771 C.ar    1  UNL1        0.1690
      7 C         140.1077  140.8779  166.8992 C.ar    1  UNL1        0.0740
      8 C         139.4352  140.9094  165.5588 C.ar    1  UNL1        0.0359
      9 C         139.9531  141.8148  164.4809 C.ar    1  UNL1        0.0204
     10 C         139.2806  141.8463  163.1405 C.ar    1  UNL1        0.0825
     11 N         139.7987  142.7518  162.0625 N.pl3   1  UNL1       -0.3023
     12 C         140.6201  142.1889  160.9408 C.3     1  UNL1        0.1082
     13 C         141.1382  143.0943  159.8629 C.3     1  UNL1        0.0938
     14 N         140.8347  144.5627  159.9067 N.3     1  UNL1       -0.2686
     15 C         141.3528  145.4680  158.8289 C.3     1  UNL1        0.0897
     16 C         140.0133  145.1256  161.0285 C.3     1  UNL1        0.0938
     17 C         139.4953  144.2201  162.1064 C.3     1  UNL1        0.1082
     18 C         140.2622  139.9410  169.3175 C.2     1  UNL1        0.2635
     19 N         139.4380  139.9580  170.5707 N.am    1  UNL1       -0.3240
     20 O         141.7589  139.8926  169.4048 O.2     1  UNL1       -0.2686
     21 H         138.4557  139.9898  170.5134 H       1  UNL1        0.1453
     22 H         139.8794  139.9373  171.4505 H       1  UNL1        0.1453
     23 C         137.6584  139.8996  160.5514 C.3     1  UNL1        0.2525
     24 O         137.4176  141.0039  161.5375 O.3     1  UNL1       -0.4701
     25 N         141.2982  141.7518  167.1617 N.pl3   1  UNL1       -0.3094
     26 H         141.3085  142.3471  167.9458 H       1  UNL1        0.1523
     27 C         142.4730  141.7188  166.2296 C.ar    1  UNL1        0.0761
     28 C         143.0785  143.0009  165.7403 C.ar    1  UNL1        0.0166
     29 C         144.2533  142.9679  164.8083 C.ar    1  UNL1       -0.0028
     30 C         144.8226  141.6526  164.3655 C.ar    1  UNL1       -0.0195
     31 C         145.9974  141.6196  163.4335 C.3     1  UNL1        0.0311
     32 C         144.2172  140.3705  164.8548 C.ar    1  UNL1        0.0267
     33 C         143.0423  140.4035  165.7869 C.ar    1  UNL1        0.1531
     34 F         142.4368  139.1214  166.2762 F       1  UNL1       -0.2029
@<TRIPOS>BOND
     1    23    24    1
     2    24     1    1
     3     1     2   ar
     4     2     3   ar
     5     3     4   ar
     6     4     5   ar
     7     5     6   ar
     8     6    18    1
     9    18    19   am
    10    18    20    2
    11     6     7   ar
    12     7    25    1
    13    25    27    1
    14    27    28   ar
    15    28    29   ar
    16    29    30   ar
    17    30    31    1
    18    30    32   ar
    19    32    33   ar
    20    33    34    1
    21     7     8   ar
    22     8     9   ar
    23     9    10   ar
    24    10    11    1
    25    11    12    1
    26    12    13    1
    27    13    14    1
    28    14    15    1
    29    14    16    1
    30    16    17    1
    31    10     1   ar
    32    17    11    1
    33     8     3   ar
    34    33    27   ar
    35    19    21    1
    36    19    22    1
    37    25    26    1
@<TRIPOS>MOLECULE
*****
 34 37 0 0 0
SMALL
GASTEIGER

@<TRIPOS>ATOM
      1 C         138.9846  138.1423  164.0951 C.ar    1  UNL1        0.1534
      2 C         138.2580  138.0201  165.4016 C.ar    1  UNL1        0.0591
      3 C         138.6861  138.8463  166.5781 C.ar    1  UNL1        0.1072
      4 N         137.9594  138.7240  167.8847 N.ar    1  UNL1       -0.1477
      5 N         138.3875  139.5501  169.0612 N.ar    1  UNL1       -0.1421
      6 C         139.5424  140.4986  168.9311 C.ar    1  UNL1        0.1690
      7 C         140.2690  140.6208  167.6246 C.ar    1  UNL1        0.0740
      8 C         139.8409  139.7947  166.4481 C.ar    1  UNL1        0.0359
      9 C         140.5675  139.9169  165.1416 C.ar    1  UNL1        0.0204
     10 C         140.1394  139.0908  163.9651 C.ar    1  UNL1        0.0825
     11 N         140.8661  139.2131  162.6586 N.pl3   1  UNL1       -0.3023
     12 C         141.8106  138.1327  162.2217 C.3     1  UNL1        0.1082
     13 C         142.5373  138.2549  160.9152 C.3     1  UNL1        0.0938
     14 N         142.3195  139.4576  160.0455 N.3     1  UNL1       -0.2686
     15 C         143.0462  139.5799  158.7391 C.3     1  UNL1        0.0897
     16 C         141.3751  140.5380  160.4824 C.3     1  UNL1        0.0938
     17 C         140.6484  140.4157  161.7890 C.3     1  UNL1        0.1082
     18 C         139.9705  141.3248  170.1076 C.2     1  UNL1        0.2635
     19 N         140.3415  140.6563  171.3982 N.am    1  UNL1       -0.3240
     20 O         140.0276  142.8193  169.9936 O.2     1  UNL1       -0.2686
     21 H         140.3040  139.6754  171.4731 H       1  UNL1        0.1453
     22 H         140.6225  141.1985  172.1704 H       1  UNL1        0.1453
     23 C         137.7922  137.9509  161.7948 C.3     1  UNL1        0.2525
     24 O         138.5565  137.3162  162.9186 O.3     1  UNL1       -0.4701
     25 N         141.4238  141.5693  167.4946 N.pl3   1  UNL1       -0.3094
     26 H         142.1593  141.5419  168.1485 H       1  UNL1        0.1523
     27 C         141.4580  142.5595  166.3683 C.ar    1  UNL1        0.0761
     28 C         140.2298  143.3503  166.0274 C.ar    1  UNL1        0.0166
     29 C         140.2640  144.3404  164.9012 C.ar    1  UNL1       -0.0028
     30 C         141.5263  144.5398  164.1158 C.ar    1  UNL1       -0.0195
     31 C         141.5605  145.5299  162.9896 C.3     1  UNL1        0.0311
     32 C         142.7545  143.7490  164.4568 C.ar    1  UNL1        0.0267
     33 C         142.7203  142.7588  165.5830 C.ar    1  UNL1        0.1531
     34 F         143.9485  141.9680  165.9239 F       1  UNL1       -0.2029
@<TRIPOS>BOND
     1    23    24    1
     2    24     1    1
     3     1     2   ar
     4     2     3   ar
     5     3     4   ar
     6     4     5   ar
     7     5     6   ar
     8     6    18    1
     9    18    19   am
    10    18    20    2
    11     6     7   ar
    12     7    25    1
    13    25    27    1
    14    27    28   ar
    15    28    29   ar
    16    29    30   ar
    17    30    31    1
    18    30    32   ar
    19    32    33   ar
    20    33    34    1
    21     7     8   ar
    22     8     9   ar
    23     9    10   ar
    24    10    11    1
    25    11    12    1
    26    12    13    1
    27    13    14    1
    28    14    15    1
    29    14    16    1
    30    16    17    1
    31    10     1   ar
    32    17    11    1
    33     8     3   ar
    34    33    27   ar
    35    19    21    1
    36    19    22    1
    37    25    26    1
@<TRIPOS>MOLECULE
*****
 34 37 0 0 0
SMALL
GASTEIGER

@<TRIPOS>ATOM
      1 C         143.7532  142.2087  164.5692 C.ar    1  UNL1        0.1534
      2 C         143.6560  142.6499  165.9995 C.ar    1  UNL1        0.0591
      3 C         142.6687  141.9963  166.9205 C.ar    1  UNL1        0.1072
      4 N         142.5715  142.4375  168.3509 N.ar    1  UNL1       -0.1477
      5 N         141.5843  141.7839  169.2719 N.ar    1  UNL1       -0.1421
      6 C         140.6943  140.6892  168.7625 C.ar    1  UNL1        0.1690
      7 C         140.7915  140.2480  167.3321 C.ar    1  UNL1        0.0740
      8 C         141.7788  140.9016  166.4111 C.ar    1  UNL1        0.0359
      9 C         141.8760  140.4604  164.9808 C.ar    1  UNL1        0.0204
     10 C         142.8632  141.1140  164.0598 C.ar    1  UNL1        0.0825
     11 N         142.9604  140.6728  162.6294 N.pl3   1  UNL1       -0.3023
     12 C         143.9662  139.6334  162.2319 C.3     1  UNL1        0.1082
     13 C         144.0634  139.1921  160.8016 C.3     1  UNL1        0.0938
     14 N         143.1549  139.7904  159.7687 N.3     1  UNL1       -0.2686
     15 C         143.2521  139.3492  158.3384 C.3     1  UNL1        0.0897
     16 C         142.1492  140.8299  160.1662 C.3     1  UNL1        0.0938
     17 C         142.0519  141.2711  161.5966 C.3     1  UNL1        0.1082
     18 C         139.7071  140.0356  169.6834 C.2     1  UNL1        0.2635
     19 N         140.0728  139.7799  171.1156 N.am    1  UNL1       -0.3240
     20 O         138.3541  139.6377  169.1724 O.2     1  UNL1       -0.2686
     21 H         140.9608  140.0411  171.4510 H       1  UNL1        0.1453
     22 H         139.4249  139.3510  171.7201 H       1  UNL1        0.1453
     23 C         144.3158  144.0181  162.7916 C.3     1  UNL1        0.2525
     24 O         144.7404  142.8623  163.6482 O.3     1  UNL1       -0.4701
     25 N         139.9015  139.1533  166.8228 N.pl3   1  UNL1       -0.3094
     26 H         139.7120  138.3699  167.3881 H       1  UNL1        0.1523
     27 C         139.3003  139.2522  165.4521 C.ar    1  UNL1        0.0761
     28 C         138.4536  140.4357  165.0881 C.ar    1  UNL1        0.0166
     29 C         137.8523  140.5346  163.7175 C.ar    1  UNL1       -0.0028
     30 C         138.0978  139.4500  162.7107 C.ar    1  UNL1       -0.0195
     31 C         137.4965  139.5489  161.3401 C.3     1  UNL1        0.0311
     32 C         138.9444  138.2665  163.0747 C.ar    1  UNL1        0.0267
     33 C         139.5457  138.1676  164.4454 C.ar    1  UNL1        0.1531
     34 F         140.3924  136.9841  164.8094 F       1  UNL1       -0.2029
@<TRIPOS>BOND
     1    23    24    1
     2    24     1    1
     3     1     2   ar
     4     2     3   ar
     5     3     4   ar
     6     4     5   ar
     7     5     6   ar
     8     6    18    1
     9    18    19   am
    10    18    20    2
    11     6     7   ar
    12     7    25    1
    13    25    27    1
    14    27    28   ar
    15    28    29   ar
    16    29    30   ar
    17    30    31    1
    18    30    32   ar
    19    32    33   ar
    20    33    34    1
    21     7     8   ar
    22     8     9   ar
    23     9    10   ar
    24    10    11    1
    25    11    12    1
    26    12    13    1
    27    13    14    1
    28    14    15    1
    29    14    16    1
    30    16    17    1
    31    10     1   ar
    32    17    11    1
    33     8     3   ar
    34    33    27   ar
    35    19    21    1
    36    19    22    1
    37    25    26    1
@<TRIPOS>MOLECULE
*****
 34 37 0 0 0
SMALL
GASTEIGER

@<TRIPOS>ATOM
      1 C         139.4713  138.2075  162.5839 C.ar    1  UNL1        0.1534
      2 C         139.3583  138.0019  161.1024 C.ar    1  UNL1        0.0591
      3 C         139.0318  139.1604  160.2072 C.ar    1  UNL1        0.1072
      4 N         138.9188  138.9548  158.7256 N.ar    1  UNL1       -0.1477
      5 N         138.5923  140.1132  157.8304 N.ar    1  UNL1       -0.1421
      6 C         138.3788  141.4773  158.4168 C.ar    1  UNL1        0.1690
      7 C         138.4918  141.6829  159.8983 C.ar    1  UNL1        0.0740
      8 C         138.8183  140.5244  160.7935 C.ar    1  UNL1        0.0359
      9 C         138.9313  140.7300  162.2750 C.ar    1  UNL1        0.0204
     10 C         139.2578  139.5715  163.1702 C.ar    1  UNL1        0.0825
     11 N         139.3708  139.7771  164.6518 N.pl3   1  UNL1       -0.3023
     12 C         138.3165  139.2294  165.5675 C.3     1  UNL1        0.1082
     13 C         138.4295  139.4350  167.0491 C.3     1  UNL1        0.0938
     14 N         139.5967  140.1883  167.6149 N.3     1  UNL1       -0.2686
     15 C         139.7097  140.3939  169.0964 C.3     1  UNL1        0.0897
     16 C         140.6510  140.7360  166.6992 C.3     1  UNL1        0.0938
     17 C         140.5380  140.5304  165.2176 C.3     1  UNL1        0.1082
     18 C         138.0523  142.6357  157.5216 C.2     1  UNL1        0.2635
     19 N         136.7880  142.6267  156.7143 N.am    1  UNL1       -0.3240
     20 O         138.9899  143.8032  157.4337 O.2     1  UNL1       -0.2686
     21 H         136.1726  141.8605  156.7721 H       1  UNL1        0.1453
     22 H         136.5737  143.3870  156.1268 H       1  UNL1        0.1453
     23 C         141.1637  136.9336  164.0882 C.3     1  UNL1        0.2525
     24 O         139.7978  137.0490  163.4791 O.3     1  UNL1       -0.4701
     25 N         138.2783  143.0469  160.4846 N.pl3   1  UNL1       -0.3094
     26 H         137.4380  143.5304  160.3131 H       1  UNL1        0.1523
     27 C         139.3450  143.6743  161.3323 C.ar    1  UNL1        0.0761
     28 C         140.7758  143.6416  160.8831 C.ar    1  UNL1        0.0166
     29 C         141.8426  144.2689  161.7306 C.ar    1  UNL1       -0.0028
     30 C         141.4785  144.9291  163.0275 C.ar    1  UNL1       -0.0195
     31 C         142.5453  145.5564  163.8751 C.3     1  UNL1        0.0311
     32 C         140.0478  144.9618  163.4767 C.ar    1  UNL1        0.0267
     33 C         138.9810  144.3343  162.6291 C.ar    1  UNL1        0.1531
     34 F         137.5502  144.3670  163.0783 F       1  UNL1       -0.2029
@<TRIPOS>BOND
     1    23    24    1
     2    24     1    1
     3     1     2   ar
     4     2     3   ar
     5     3     4   ar
     6     4     5   ar
     7     5     6   ar
     8     6    18    1
     9    18    19   am
    10    18    20    2
    11     6     7   ar
    12     7    25    1
    13    25    27    1
    14    27    28   ar
    15    28    29   ar
    16    29    30   ar
    17    30    31    1
    18    30    32   ar
    19    32    33   ar
    20    33    34    1
    21     7     8   ar
    22     8     9   ar
    23     9    10   ar
    24    10    11    1
    25    11    12    1
    26    12    13    1
    27    13    14    1
    28    14    15    1
    29    14    16    1
    30    16    17    1
    31    10     1   ar
    32    17    11    1
    33     8     3   ar
    34    33    27   ar
    35    19    21    1
    36    19    22    1
    37    25    26    1
@<TRIPOS>MOLECULE
*****
 34 37 0 0 0
SMALL
GASTEIGER

@<TRIPOS>ATOM
      1 C         139.1496  143.4777  164.0675 C.ar    1  UNL1        0.1534
      2 C         139.4800  143.8391  165.4853 C.ar    1  UNL1        0.0591
      3 C         140.0402  142.8017  166.4127 C.ar    1  UNL1        0.1072
      4 N         140.3706  143.1632  167.8306 N.ar    1  UNL1       -0.1477
      5 N         140.9307  142.1258  168.7580 N.ar    1  UNL1       -0.1421
      6 C         141.1605  140.7269  168.2675 C.ar    1  UNL1        0.1690
      7 C         140.8301  140.3655  166.8497 C.ar    1  UNL1        0.0740
      8 C         140.2700  141.4029  165.9223 C.ar    1  UNL1        0.0359
      9 C         139.9396  141.0415  164.5045 C.ar    1  UNL1        0.0204
     10 C         139.3794  142.0789  163.5771 C.ar    1  UNL1        0.0825
     11 N         139.0490  141.7174  162.1592 N.pl3   1  UNL1       -0.3023
     12 C         137.8971  140.8020  161.8676 C.3     1  UNL1        0.1082
     13 C         137.5667  140.4405  160.4498 C.3     1  UNL1        0.0938
     14 N         138.3883  140.9944  159.3236 N.3     1  UNL1       -0.2686
     15 C         138.0579  140.6329  157.9058 C.3     1  UNL1        0.0897
     16 C         139.5402  141.9098  159.6153 C.3     1  UNL1        0.0938
     17 C         139.8706  142.2713  161.0331 C.3     1  UNL1        0.1082
     18 C         141.7207  139.6895  169.1949 C.2     1  UNL1        0.2635
     19 N         141.0096  139.3659  170.4754 N.am    1  UNL1       -0.3240
     20 O         142.9918  138.9758  168.8418 O.2     1  UNL1       -0.2686
     21 H         140.1753  139.8344  170.7072 H       1  UNL1        0.1453
     22 H         141.3772  138.6850  171.0841 H       1  UNL1        0.1453
     23 C         139.5009  145.5209  162.5017 C.3     1  UNL1        0.2525
     24 O         138.5895  144.5150  163.1401 O.3     1  UNL1       -0.4701
     25 N         141.0599  138.9667  166.3593 N.pl3   1  UNL1       -0.3094
     26 H         140.7185  138.2016  166.8762 H       1  UNL1        0.1523
     27 C         141.8098  138.7337  165.0812 C.ar    1  UNL1        0.0761
     28 C         143.1841  139.3078  164.9027 C.ar    1  UNL1        0.0166
     29 C         143.9340  139.0748  163.6247 C.ar    1  UNL1       -0.0028
     30 C         143.3097  138.2677  162.5252 C.ar    1  UNL1       -0.0195
     31 C         144.0597  138.0347  161.2472 C.3     1  UNL1        0.0311
     32 C         141.9355  137.6936  162.7037 C.ar    1  UNL1        0.0267
     33 C         141.1855  137.9266  163.9818 C.ar    1  UNL1        0.1531
     34 F         139.8113  137.3525  164.1603 F       1  UNL1       -0.2029
@<TRIPOS>BOND
     1    23    24    1
     2    24     1    1
     3     1     2   ar
     4     2     3   ar
     5     3     4   ar
     6     4     5   ar
     7     5     6   ar
     8     6    18    1
     9    18    19   am
    10    18    20    2
    11     6     7   ar
    12     7    25    1
    13    25    27    1
    14    27    28   ar
    15    28    29   ar
    16    29    30   ar
    17    30    31    1
    18    30    32   ar
    19    32    33   ar
    20    33    34    1
    21     7     8   ar
    22     8     9   ar
    23     9    10   ar
    24    10    11    1
    25    11    12    1
    26    12    13    1
    27    13    14    1
    28    14    15    1
    29    14    16    1
    30    16    17    1
    31    10     1   ar
    32    17    11    1
    33     8     3   ar
    34    33    27   ar
    35    19    21    1
    36    19    22    1
    37    25    26    1
@<TRIPOS>MOLECULE
*****
 34 37 0 0 0
SMALL
GASTEIGER

@<TRIPOS>ATOM
      1 C         142.9142  138.5402  163.3029 C.ar    1  UNL1        0.1534
      2 C         143.5442  138.3737  164.6539 C.ar    1  UNL1        0.0591
      3 C         142.8302  138.8611  165.8797 C.ar    1  UNL1        0.1072
      4 N         143.4603  138.6946  167.2308 N.ar    1  UNL1       -0.1477
      5 N         142.7462  139.1820  168.4566 N.ar    1  UNL1       -0.1421
      6 C         141.4020  139.8359  168.3313 C.ar    1  UNL1        0.1690
      7 C         140.7720  140.0024  166.9803 C.ar    1  UNL1        0.0740
      8 C         141.4860  139.5150  165.7545 C.ar    1  UNL1        0.0359
      9 C         140.8560  139.6815  164.4035 C.ar    1  UNL1        0.0204
     10 C         141.5700  139.1941  163.1777 C.ar    1  UNL1        0.0825
     11 N         140.9399  139.3606  161.8267 N.pl3   1  UNL1       -0.3023
     12 C         141.0506  140.6703  161.1038 C.3     1  UNL1        0.1082
     13 C         140.4205  140.8369  159.7528 C.3     1  UNL1        0.0938
     14 N         139.6797  139.6937  159.1246 N.3     1  UNL1       -0.2686
     15 C         139.0496  139.8603  157.7736 C.3     1  UNL1        0.0897
     16 C         139.5690  138.3841  159.8475 C.3     1  UNL1        0.0938
     17 C         140.1992  138.2175  161.1985 C.3     1  UNL1        0.1082
     18 C         140.6880  140.3232  169.5571 C.2     1  UNL1        0.2635
     19 N         140.5760  139.4369  170.7621 N.am    1  UNL1       -0.3240
     20 O         140.0859  141.6969  169.5780 O.2     1  UNL1       -0.2686
     21 H         140.9712  138.5353  170.7484 H       1  UNL1        0.1453
     22 H         140.1074  139.7567  171.5666 H       1  UNL1        0.1453
     23 C         144.2641  139.0355  161.1391 C.3     1  UNL1        0.2525
     24 O         143.6282  138.0529  162.0771 O.3     1  UNL1       -0.4701
     25 N         139.4279  140.6562  166.8551 N.pl3   1  UNL1       -0.3094
     26 H         138.6831  140.3643  167.4289 H       1  UNL1        0.1523
     27 C         139.2185  141.7550  165.8556 C.ar    1  UNL1        0.0761
     28 C         138.1445  141.6285  164.8160 C.ar    1  UNL1        0.0166
     29 C         137.9351  142.7272  163.8165 C.ar    1  UNL1       -0.0028
     30 C         138.7997  143.9524  163.8565 C.ar    1  UNL1       -0.0195
     31 C         138.5902  145.0511  162.8570 C.3     1  UNL1        0.0311
     32 C         139.8736  144.0788  164.8961 C.ar    1  UNL1        0.0267
     33 C         140.0830  142.9801  165.8956 C.ar    1  UNL1        0.1531
     34 F         141.1569  143.1066  166.9352 F       1  UNL1       -0.2029
@<TRIPOS>BOND
     1    23    24    1
     2    24     1    1
     3     1     2   ar
     4     2     3   ar
     5     3     4   ar
     6     4     5   ar
     7     5     6   ar
     8     6    18    1
     9    18    19   am
    10    18    20    2
    11     6     7   ar
    12     7    25    1
    13    25    27    1
    14    27    28   ar
    15    28    29   ar
    16    29    30   ar
    17    30    31    1
    18    30    32   ar
    19    32    33   ar
    20    33    34    1
    21     7     8   ar
    22     8     9   ar
    23     9    10   ar
    24    10    11    1
    25    11    12    1
    26    12    13    1
    27    13    14    1
    28    14    15    1
    29    14    16    1
    30    16    17    1
    31    10     1   ar
    32    17    11    1
    33     8     3   ar
    34    33    27   ar
    35    19    21    1
    36    19    22    1
    37    25    26    1
@<TRIPOS>MOLECULE
*****
 34 37 0 0 0
SMALL
GASTEIGER

@<TRIPOS>ATOM
      1 C         138.5550  140.7161  161.9265 C.ar    1  UNL1        0.1534
      2 C         138.1884  141.1399  160.5351 C.ar    1  UNL1        0.0591
      3 C         138.9072  142.2853  159.8861 C.ar    1  UNL1        0.1072
      4 N         138.5405  142.7091  158.4947 N.ar    1  UNL1       -0.1477
      5 N         139.2593  143.8546  157.8456 N.ar    1  UNL1       -0.1421
      6 C         140.3448  144.5763  158.5880 C.ar    1  UNL1        0.1690
      7 C         140.7113  144.1525  159.9794 C.ar    1  UNL1        0.0740
      8 C         139.9926  143.0070  160.6284 C.ar    1  UNL1        0.0359
      9 C         140.3591  142.5832  162.0198 C.ar    1  UNL1        0.0204
     10 C         139.6404  141.4377  162.6688 C.ar    1  UNL1        0.0825
     11 N         140.0070  141.0139  164.0603 N.pl3   1  UNL1       -0.3023
     12 C         141.0785  139.9861  164.2734 C.3     1  UNL1        0.1082
     13 C         141.4452  139.5623  165.6648 C.3     1  UNL1        0.0938
     14 N         140.7403  140.1664  166.8431 N.3     1  UNL1       -0.2686
     15 C         141.1070  139.7426  168.2344 C.3     1  UNL1        0.0897
     16 C         139.6688  141.1942  166.6300 C.3     1  UNL1        0.0938
     17 C         139.3021  141.6180  165.2385 C.3     1  UNL1        0.1082
     18 C         141.0635  145.7217  157.9390 C.2     1  UNL1        0.2635
     19 N         140.3107  146.6818  157.0663 N.am    1  UNL1       -0.3240
     20 O         142.5351  145.9072  158.1626 O.2     1  UNL1       -0.2686
     21 H         139.3448  146.5601  156.9195 H       1  UNL1        0.1453
     22 H         140.7824  147.4336  156.6403 H       1  UNL1        0.1453
     23 C         138.1550  138.1610  162.1741 C.3     1  UNL1        0.2525
     24 O         137.8362  139.5706  162.5756 O.3     1  UNL1       -0.4701
     25 N         141.7967  144.8741  160.7217 N.pl3   1  UNL1       -0.3094
     26 H         141.8214  145.8583  160.7235 H       1  UNL1        0.1523
     27 C         142.8446  144.0963  161.4614 C.ar    1  UNL1        0.0761
     28 C         143.6442  143.0476  160.7467 C.ar    1  UNL1        0.0166
     29 C         144.6920  142.2697  161.4863 C.ar    1  UNL1       -0.0028
     30 C         144.9402  142.5406  162.9407 C.ar    1  UNL1       -0.0195
     31 C         145.9879  141.7627  163.6803 C.3     1  UNL1        0.0311
     32 C         144.1405  143.5893  163.6554 C.ar    1  UNL1        0.0267
     33 C         143.0927  144.3671  162.9157 C.ar    1  UNL1        0.1531
     34 F         142.2930  145.4158  163.6304 F       1  UNL1       -0.2029
@<TRIPOS>BOND
     1    23    24    1
     2    24     1    1
     3     1     2   ar
     4     2     3   ar
     5     3     4   ar
     6     4     5   ar
     7     5     6   ar
     8     6    18    1
     9    18    19   am
    10    18    20    2
    11     6     7   ar
    12     7    25    1
    13    25    27    1
    14    27    28   ar
    15    28    29   ar
    16    29    30   ar
    17    30    31    1
    18    30    32   ar
    19    32    33   ar
    20    33    34    1
    21     7     8   ar
    22     8     9   ar
    23     9    10   ar
    24    10    11    1
    25    11    12    1
    26    12    13    1
    27    13    14    1
    28    14    15    1
    29    14    16    1
    30    16    17    1
    31    10     1   ar
    32    17    11    1
    33     8     3   ar
    34    33    27   ar
    35    19    21    1
    36    19    22    1
    37    25    26    1
@<TRIPOS>MOLECULE
*****
 34 37 0 0 0
SMALL
GASTEIGER

@<TRIPOS>ATOM
      1 C         142.7453  139.4376  163.0689 C.ar    1  UNL1        0.1534
      2 C         143.7411  139.9168  162.0546 C.ar    1  UNL1        0.0591
      3 C         143.3956  141.0588  161.1457 C.ar    1  UNL1        0.1072
      4 N         144.3915  141.5380  160.1314 N.ar    1  UNL1       -0.1477
      5 N         144.0459  142.6801  159.2224 N.ar    1  UNL1       -0.1421
      6 C         142.7044  143.3430  159.3277 C.ar    1  UNL1        0.1690
      7 C         141.7086  142.8639  160.3419 C.ar    1  UNL1        0.0740
      8 C         142.0542  141.7218  161.2509 C.ar    1  UNL1        0.0359
      9 C         141.0584  141.2426  162.2651 C.ar    1  UNL1        0.0204
     10 C         141.4039  140.1006  163.1741 C.ar    1  UNL1        0.0825
     11 N         140.4080  139.6214  164.1884 N.pl3   1  UNL1       -0.3023
     12 C         139.6782  138.3292  163.9705 C.3     1  UNL1        0.1082
     13 C         138.6823  137.8500  164.9847 C.3     1  UNL1        0.0938
     14 N         138.4162  138.6632  166.2168 N.3     1  UNL1       -0.2686
     15 C         137.4203  138.1840  167.2310 C.3     1  UNL1        0.0897
     16 C         139.1460  139.9554  166.4347 C.3     1  UNL1        0.0938
     17 C         140.1419  140.4346  165.4204 C.3     1  UNL1        0.1082
     18 C         142.3589  144.4851  158.4187 C.2     1  UNL1        0.2635
     19 N         142.7174  144.4205  156.9636 N.am    1  UNL1       -0.3240
     20 O         141.6548  145.6917  158.9648 O.2     1  UNL1       -0.2686
     21 H         143.1795  143.6285  156.6052 H       1  UNL1        0.1453
     22 H         142.4906  145.1700  156.3670 H       1  UNL1        0.1453
     23 C         143.5407  138.5651  165.3831 C.3     1  UNL1        0.2525
     24 O         143.0909  138.2955  163.9778 O.3     1  UNL1       -0.4701
     25 N         140.3672  143.5268  160.4472 N.pl3   1  UNL1       -0.3094
     26 H         139.8417  143.7063  159.6343 H       1  UNL1        0.1523
     27 C         139.8265  143.9163  161.7911 C.ar    1  UNL1        0.0761
     28 C         138.4364  143.5136  162.1856 C.ar    1  UNL1        0.0166
     29 C         137.8957  143.9031  163.5294 C.ar    1  UNL1       -0.0028
     30 C         138.7450  144.6953  164.4788 C.ar    1  UNL1       -0.0195
     31 C         138.2042  145.0848  165.8226 C.3     1  UNL1        0.0311
     32 C         140.1350  145.0980  164.0843 C.ar    1  UNL1        0.0267
     33 C         140.6758  144.7084  162.7404 C.ar    1  UNL1        0.1531
     34 F         142.0658  145.1111  162.3459 F       1  UNL1       -0.2029
@<TRIPOS>BOND
     1    23    24    1
     2    24     1    1
     3     1     2   ar
     4     2     3   ar
     5     3     4   ar
     6     4     5   ar
     7     5     6   ar
     8     6    18    1
     9    18    19   am
    10    18    20    2
    11     6     7   ar
    12     7    25    1
    13    25    27    1
    14    27    28   ar
    15    28    29   ar
    16    29    30   ar
    17    30    31    1
    18    30    32   ar
    19    32    33   ar
    20    33    34    1
    21     7     8   ar
    22     8     9   ar
    23     9    10   ar
    24    10    11    1
    25    11    12    1
    26    12    13    1
    27    13    14    1
    28    14    15    1
    29    14    16    1
    30    16    17    1
    31    10     1   ar
    32    17    11    1
    33     8     3   ar
    34    33    27   ar
    35    19    21    1
    36    19    22    1
    37    25    26    1
@<TRIPOS>MOLECULE
*****
 34 37 0 0 0
SMALL
GASTEIGER

@<TRIPOS>ATOM
      1 C         139.1692  139.0876  160.0176 C.ar    1  UNL1        0.1534
      2 C         139.0911  137.9995  161.0471 C.ar    1  UNL1        0.0591
      3 C         138.9817  138.3497  162.5016 C.ar    1  UNL1        0.1072
      4 N         138.9037  137.2615  163.5311 N.ar    1  UNL1       -0.1477
      5 N         138.7942  137.6116  164.9856 N.ar    1  UNL1       -0.1421
      6 C         138.7629  139.0499  165.4105 C.ar    1  UNL1        0.1690
      7 C         138.8409  140.1379  164.3810 C.ar    1  UNL1        0.0740
      8 C         138.9503  139.7878  162.9265 C.ar    1  UNL1        0.0359
      9 C         139.0284  140.8759  161.8970 C.ar    1  UNL1        0.0204
     10 C         139.1378  140.5258  160.4425 C.ar    1  UNL1        0.0825
     11 N         139.2158  141.6139  159.4130 N.pl3   1  UNL1       -0.3023
     12 C         138.1041  141.7893  158.4214 C.3     1  UNL1        0.1082
     13 C         138.1821  142.8774  157.3919 C.3     1  UNL1        0.0938
     14 N         139.3719  143.7902  157.3539 N.3     1  UNL1       -0.2686
     15 C         139.4499  144.8783  156.3244 C.3     1  UNL1        0.0897
     16 C         140.4836  143.6148  158.3455 C.3     1  UNL1        0.0938
     17 C         140.4056  142.5266  159.3751 C.3     1  UNL1        0.1082
     18 C         138.6534  139.4000  166.8650 C.2     1  UNL1        0.2635
     19 N         137.6784  138.6703  167.7407 N.am    1  UNL1       -0.3240
     20 O         139.5190  140.4797  167.4436 O.2     1  UNL1       -0.2686
     21 H         137.1103  137.9616  167.3609 H       1  UNL1        0.1453
     22 H         137.6066  138.9001  168.6953 H       1  UNL1        0.1453
     23 C         140.6276  138.5289  157.9414 C.3     1  UNL1        0.2525
     24 O         139.2786  138.7375  158.5631 O.3     1  UNL1       -0.4701
     25 N         138.8095  141.5761  164.8059 N.pl3   1  UNL1       -0.3094
     26 H         138.0005  141.9477  165.2262 H       1  UNL1        0.1523
     27 C         140.0108  142.4483  164.5904 C.ar    1  UNL1        0.0761
     28 C         141.3874  141.8994  164.8223 C.ar    1  UNL1        0.0166
     29 C         142.5886  142.7715  164.6069 C.ar    1  UNL1       -0.0028
     30 C         142.4133  144.1925  164.1594 C.ar    1  UNL1       -0.0195
     31 C         143.6146  145.0645  163.9440 C.3     1  UNL1        0.0311
     32 C         141.0368  144.7413  163.9275 C.ar    1  UNL1        0.0267
     33 C         139.8355  143.8692  164.1430 C.ar    1  UNL1        0.1531
     34 F         138.4589  144.4180  163.9110 F       1  UNL1       -0.2029
@<TRIPOS>BOND
     1    23    24    1
     2    24     1    1
     3     1     2   ar
     4     2     3   ar
     5     3     4   ar
     6     4     5   ar
     7     5     6   ar
     8     6    18    1
     9    18    19   am
    10    18    20    2
    11     6     7   ar
    12     7    25    1
    13    25    27    1
    14    27    28   ar
    15    28    29   ar
    16    29    30   ar
    17    30    31    1
    18    30    32   ar
    19    32    33   ar
    20    33    34    1
    21     7     8   ar
    22     8     9   ar
    23     9    10   ar
    24    10    11    1
    25    11    12    1
    26    12    13    1
    27    13    14    1
    28    14    15    1
    29    14    16    1
    30    16    17    1
    31    10     1   ar
    32    17    11    1
    33     8     3   ar
    34    33    27   ar
    35    19    21    1
    36    19    22    1
    37    25    26    1
