@<TRIPOS>MOLECULE
*****
 28 31 0 0 0
SMALL
GASTEIGER

@<TRIPOS>ATOM
      1 N         143.6805  143.4619  162.1751 N.ar    1  UNL1       -0.2116
      2 N         143.8676  144.8266  162.7691 N.ar    1  UNL1       -0.1621
      3 C         143.7894  144.6971  164.2615 C.ar    1  UNL1        0.1236
      4 C         143.5540  143.2525  164.5898 C.ar    1  UNL1        0.0580
      5 C         143.3922  142.5337  165.8963 C.ar    1  UNL1        0.0209
      6 C         143.1631  141.0514  165.9133 C.ar    1  UNL1        0.0679
      7 C         143.0958  140.2880  164.6239 C.ar    1  UNL1        0.1151
      8 N         143.2576  141.0069  163.3174 N.ar    1  UNL1       -0.2237
      9 C         143.4867  142.4891  163.3003 C.ar    1  UNL1        0.1653
     10 C         144.3992  142.3641  158.5223 C.ar    1  UNL1        0.0843
     11 C         144.8288  142.5256  159.9503 C.ar    1  UNL1        0.0307
     12 C         143.6863  143.1286  160.7126 C.ar    1  UNL1        0.0915
     13 C         142.5507  143.3398  159.7557 C.ar    1  UNL1        0.0548
     14 S         142.9912  142.8673  158.4019 S.2     1  UNL1       -0.0803
     15 C         147.0239  142.1155  155.5558 C.3     1  UNL1        0.1110
     16 N         146.1916  142.6809  156.6683 N.am    1  UNL1       -0.2987
     17 C         145.2315  141.7986  157.4097 C.2     1  UNL1        0.2520
     18 O         145.1037  140.3508  157.0387 O.2     1  UNL1       -0.2696
     19 H         146.2755  143.6311  156.9118 H       1  UNL1        0.1498
     20 N         143.0012  140.3324  167.2199 N.pl3   1  UNL1       -0.3107
     21 H         143.6216  139.6076  167.4630 H       1  UNL1        0.1523
     22 C         141.8942  140.7177  168.1558 C.ar    1  UNL1        0.0590
     23 C         140.5287  140.1197  167.9890 C.ar    1  UNL1        0.0155
     24 C         139.4217  140.5050  168.9250 C.ar    1  UNL1        0.0013
     25 C         139.6802  141.4884  170.0278 C.ar    1  UNL1        0.0009
     26 C         141.0457  142.0864  170.1946 C.ar    1  UNL1        0.0126
     27 C         142.1527  141.7011  169.2586 C.ar    1  UNL1        0.0710
     28 CL        143.5182  142.2992  169.4254 Cl      1  UNL1       -0.0810
@<TRIPOS>BOND
     1    15    16    1
     2    16    17   am
     3    17    18    2
     4    17    10    1
     5    10    11   ar
     6    11    12   ar
     7    12     1    1
     8     1     2   ar
     9     2     3   ar
    10     3     4   ar
    11     4     5   ar
    12     5     6   ar
    13     6    20    1
    14    20    22    1
    15    22    23   ar
    16    23    24   ar
    17    24    25   ar
    18    25    26   ar
    19    26    27   ar
    20    27    28    1
    21     6     7   ar
    22     7     8   ar
    23     8     9   ar
    24    12    13   ar
    25    13    14   ar
    26    14    10   ar
    27     9     1   ar
    28     9     4   ar
    29    27    22   ar
    30    16    19    1
    31    20    21    1
@<TRIPOS>MOLECULE
*****
 28 31 0 0 0
SMALL
GASTEIGER

@<TRIPOS>ATOM
      1 N         140.8109  145.3138  160.2372 N.ar    1  UNL1       -0.2116
      2 N         139.5992  145.8333  160.9526 N.ar    1  UNL1       -0.1621
      3 C         139.7612  145.5368  162.4140 C.ar    1  UNL1        0.1236
      4 C         141.0730  144.8342  162.6018 C.ar    1  UNL1        0.0580
      5 C         141.7606  144.3020  163.8241 C.ar    1  UNL1        0.0209
      6 C         143.0970  143.6321  163.7010 C.ar    1  UNL1        0.0679
      7 C         143.7458  143.4942  162.3556 C.ar    1  UNL1        0.1151
      8 N         143.0582  144.0264  161.1333 N.ar    1  UNL1       -0.2237
      9 C         141.7218  144.6963  161.2565 C.ar    1  UNL1        0.1653
     10 C         140.9000  146.0189  156.4214 C.ar    1  UNL1        0.0843
     11 C         140.3102  146.2445  157.7819 C.ar    1  UNL1        0.0307
     12 C         141.0669  145.3972  158.7615 C.ar    1  UNL1        0.0915
     13 C         142.1243  144.6480  158.0063 C.ar    1  UNL1        0.0548
     14 S         142.0213  145.0322  156.5600 S.2     1  UNL1       -0.0803
     15 C         139.7379  148.7909  153.8299 C.3     1  UNL1        0.1110
     16 N         140.1899  148.1434  155.1052 N.am    1  UNL1       -0.2987
     17 C         140.4480  146.6664  155.1460 C.2     1  UNL1        0.2520
     18 O         140.2541  145.8368  153.9114 O.2     1  UNL1       -0.2696
     19 H         140.3172  148.6879  155.9155 H       1  UNL1        0.1498
     20 N         143.7847  143.0999  164.9233 N.pl3   1  UNL1       -0.3107
     21 H         144.3075  143.7055  165.4970 H       1  UNL1        0.1523
     22 C         143.6757  141.6450  165.2716 C.ar    1  UNL1        0.0590
     23 C         144.4423  140.6254  164.4823 C.ar    1  UNL1        0.0155
     24 C         144.3332  139.1704  164.8306 C.ar    1  UNL1        0.0013
     25 C         143.4576  138.7351  165.9681 C.ar    1  UNL1        0.0009
     26 C         142.6911  139.7547  166.7573 C.ar    1  UNL1        0.0126
     27 C         142.8001  141.2096  166.4090 C.ar    1  UNL1        0.0710
     28 CL        142.0335  142.2292  167.1983 Cl      1  UNL1       -0.0810
@<TRIPOS>BOND
     1    15    16    1
     2    16    17   am
     3    17    18    2
     4    17    10    1
     5    10    11   ar
     6    11    12   ar
     7    12     1    1
     8     1     2   ar
     9     2     3   ar
    10     3     4   ar
    11     4     5   ar
    12     5     6   ar
    13     6    20    1
    14    20    22    1
    15    22    23   ar
    16    23    24   ar
    17    24    25   ar
    18    25    26   ar
    19    26    27   ar
    20    27    28    1
    21     6     7   ar
    22     7     8   ar
    23     8     9   ar
    24    12    13   ar
    25    13    14   ar
    26    14    10   ar
    27     9     1   ar
    28     9     4   ar
    29    27    22   ar
    30    16    19    1
    31    20    21    1
@<TRIPOS>MOLECULE
*****
 28 31 0 0 0
SMALL
GASTEIGER

@<TRIPOS>ATOM
      1 N         139.6629  144.1334  162.6088 N.ar    1  UNL1       -0.2116
      2 N         138.9611  145.1751  163.4287 N.ar    1  UNL1       -0.1621
      3 C         139.0298  144.7564  164.8675 C.ar    1  UNL1        0.1236
      4 C         139.7741  143.4559  164.9367 C.ar    1  UNL1        0.0580
      5 C         140.1460  142.5726  166.0906 C.ar    1  UNL1        0.0209
      6 C         140.9092  141.3042  165.8484 C.ar    1  UNL1        0.0679
      7 C         141.3005  140.9192  164.4525 C.ar    1  UNL1        0.1151
      8 N         140.9285  141.8025  163.2987 N.ar    1  UNL1       -0.2237
      9 C         140.1653  143.0709  163.5408 C.ar    1  UNL1        0.1653
     10 C         140.4206  144.8516  158.8705 C.ar    1  UNL1        0.0843
     11 C         140.4615  145.2510  160.3158 C.ar    1  UNL1        0.0307
     12 C         139.8325  144.1511  161.1185 C.ar    1  UNL1        0.0915
     13 C         139.4028  143.0720  160.1694 C.ar    1  UNL1        0.0548
     14 S         139.7663  143.5049  158.7800 S.2     1  UNL1       -0.0803
     15 C         140.5829  146.7400  155.3836 C.3     1  UNL1        0.1110
     16 N         140.0611  145.9341  156.5361 N.am    1  UNL1       -0.2987
     17 C         140.9425  145.6576  157.7180 C.2     1  UNL1        0.2520
     18 O         142.3457  146.1870  157.7473 O.2     1  UNL1       -0.2696
     19 H         139.1402  145.5867  156.5169 H       1  UNL1        0.1498
     20 N         141.2812  140.4208  167.0023 N.pl3   1  UNL1       -0.3107
     21 H         141.3306  139.4453  166.8794 H       1  UNL1        0.1523
     22 C         141.5781  141.0239  168.3433 C.ar    1  UNL1        0.0590
     23 C         142.8936  141.7027  168.5857 C.ar    1  UNL1        0.0155
     24 C         143.1905  142.3057  169.9267 C.ar    1  UNL1        0.0013
     25 C         142.1718  142.2299  171.0252 C.ar    1  UNL1        0.0009
     26 C         140.8564  141.5511  170.7827 C.ar    1  UNL1        0.0126
     27 C         140.5595  140.9481  169.4418 C.ar    1  UNL1        0.0710
     28 CL        139.2440  140.2693  169.1993 Cl      1  UNL1       -0.0810
@<TRIPOS>BOND
     1    15    16    1
     2    16    17   am
     3    17    18    2
     4    17    10    1
     5    10    11   ar
     6    11    12   ar
     7    12     1    1
     8     1     2   ar
     9     2     3   ar
    10     3     4   ar
    11     4     5   ar
    12     5     6   ar
    13     6    20    1
    14    20    22    1
    15    22    23   ar
    16    23    24   ar
    17    24    25   ar
    18    25    26   ar
    19    26    27   ar
    20    27    28    1
    21     6     7   ar
    22     7     8   ar
    23     8     9   ar
    24    12    13   ar
    25    13    14   ar
    26    14    10   ar
    27     9     1   ar
    28     9     4   ar
    29    27    22   ar
    30    16    19    1
    31    20    21    1
@<TRIPOS>MOLECULE
*****
 28 31 0 0 0
SMALL
GASTEIGER

@<TRIPOS>ATOM
      1 N         140.6935  145.4947  159.9630 N.ar    1  UNL1       -0.2116
      2 N         139.5325  146.0923  160.7012 N.ar    1  UNL1       -0.1621
      3 C         139.7189  145.8120  162.1630 C.ar    1  UNL1        0.1236
      4 C         140.9950  145.0411  162.3282 C.ar    1  UNL1        0.0580
      5 C         141.6863  144.4924  163.5410 C.ar    1  UNL1        0.0209
      6 C         142.9800  143.7476  163.3941 C.ar    1  UNL1        0.0679
      7 C         143.5824  143.5516  162.0344 C.ar    1  UNL1        0.1151
      8 N         142.8911  144.1003  160.8216 N.ar    1  UNL1       -0.2237
      9 C         141.5974  144.8450  160.9685 C.ar    1  UNL1        0.1653
     10 C         141.8812  145.2119  156.2786 C.ar    1  UNL1        0.0843
     11 C         142.0638  144.9256  157.7397 C.ar    1  UNL1        0.0307
     12 C         140.9123  145.5390  158.4797 C.ar    1  UNL1        0.0915
     13 C         140.0180  146.2043  157.4760 C.ar    1  UNL1        0.0548
     14 S         140.6167  146.0023  156.1156 S.2     1  UNL1       -0.0803
     15 C         144.7423  143.2833  154.3178 C.3     1  UNL1        0.1110
     16 N         143.8221  143.7121  155.4220 N.am    1  UNL1       -0.2987
     17 C         142.8015  144.7831  155.1743 C.2     1  UNL1        0.2520
     18 O         142.7011  145.4254  153.8225 O.2     1  UNL1       -0.2696
     19 H         143.8879  143.2906  156.3092 H       1  UNL1        0.1498
     20 N         143.6714  143.1989  164.6070 N.pl3   1  UNL1       -0.3107
     21 H         144.1094  143.8100  165.2426 H       1  UNL1        0.1523
     22 C         143.6955  141.7191  164.8513 C.ar    1  UNL1        0.0590
     23 C         142.5708  141.0637  165.5967 C.ar    1  UNL1        0.0155
     24 C         142.5949  139.5839  165.8411 C.ar    1  UNL1        0.0013
     25 C         143.7436  138.7596  165.3400 C.ar    1  UNL1        0.0009
     26 C         144.8682  139.4151  164.5946 C.ar    1  UNL1        0.0126
     27 C         144.8441  140.8948  164.3503 C.ar    1  UNL1        0.0710
     28 CL        145.9688  141.5503  163.6049 Cl      1  UNL1       -0.0810
@<TRIPOS>BOND
     1    15    16    1
     2    16    17   am
     3    17    18    2
     4    17    10    1
     5    10    11   ar
     6    11    12   ar
     7    12     1    1
     8     1     2   ar
     9     2     3   ar
    10     3     4   ar
    11     4     5   ar
    12     5     6   ar
    13     6    20    1
    14    20    22    1
    15    22    23   ar
    16    23    24   ar
    17    24    25   ar
    18    25    26   ar
    19    26    27   ar
    20    27    28    1
    21     6     7   ar
    22     7     8   ar
    23     8     9   ar
    24    12    13   ar
    25    13    14   ar
    26    14    10   ar
    27     9     1   ar
    28     9     4   ar
    29    27    22   ar
    30    16    19    1
    31    20    21    1
@<TRIPOS>MOLECULE
*****
 28 31 0 0 0
SMALL
GASTEIGER

@<TRIPOS>ATOM
      1 N         140.2970  144.5647  161.6821 N.ar    1  UNL1       -0.2116
      2 N         138.9815  145.0950  162.1700 N.ar    1  UNL1       -0.1621
      3 C         138.8649  144.7731  163.6304 C.ar    1  UNL1        0.1236
      4 C         140.1083  144.0438  164.0450 C.ar    1  UNL1        0.0580
      5 C         140.5489  143.4803  165.3635 C.ar    1  UNL1        0.0209
      6 C         141.8747  142.7881  165.4778 C.ar    1  UNL1        0.0679
      7 C         142.7599  142.6593  164.2737 C.ar    1  UNL1        0.1151
      8 N         142.3192  143.2228  162.9552 N.ar    1  UNL1       -0.2237
      9 C         140.9935  143.9150  162.8409 C.ar    1  UNL1        0.1653
     10 C         141.0879  145.3075  157.9554 C.ar    1  UNL1        0.0843
     11 C         140.2494  145.5105  159.1825 C.ar    1  UNL1        0.0307
     12 C         140.8237  144.6663  160.2813 C.ar    1  UNL1        0.0915
     13 C         142.0172  143.9415  159.7333 C.ar    1  UNL1        0.0548
     14 S         142.1805  144.3377  158.2958 S.2     1  UNL1       -0.0803
     15 C         139.6443  147.7105  155.1462 C.3     1  UNL1        0.1110
     16 N         139.8605  147.0583  156.4795 N.am    1  UNL1       -0.2987
     17 C         140.8718  145.9597  156.6220 C.2     1  UNL1        0.2520
     18 O         141.6669  145.5132  155.4310 O.2     1  UNL1       -0.2696
     19 H         139.3386  147.3514  157.2612 H       1  UNL1        0.1498
     20 N         142.3154  142.2246  166.7963 N.pl3   1  UNL1       -0.3107
     21 H         143.2750  142.1392  166.9991 H       1  UNL1        0.1523
     22 C         141.2940  141.7911  167.8057 C.ar    1  UNL1        0.0590
     23 C         140.9860  142.6663  168.9844 C.ar    1  UNL1        0.0155
     24 C         139.9646  142.2329  169.9937 C.ar    1  UNL1        0.0013
     25 C         139.2512  140.9242  169.8244 C.ar    1  UNL1        0.0009
     26 C         139.5592  140.0491  168.6458 C.ar    1  UNL1        0.0126
     27 C         140.5806  140.4826  167.6364 C.ar    1  UNL1        0.0710
     28 CL        140.8886  139.6074  166.4577 Cl      1  UNL1       -0.0810
@<TRIPOS>BOND
     1    15    16    1
     2    16    17   am
     3    17    18    2
     4    17    10    1
     5    10    11   ar
     6    11    12   ar
     7    12     1    1
     8     1     2   ar
     9     2     3   ar
    10     3     4   ar
    11     4     5   ar
    12     5     6   ar
    13     6    20    1
    14    20    22    1
    15    22    23   ar
    16    23    24   ar
    17    24    25   ar
    18    25    26   ar
    19    26    27   ar
    20    27    28    1
    21     6     7   ar
    22     7     8   ar
    23     8     9   ar
    24    12    13   ar
    25    13    14   ar
    26    14    10   ar
    27     9     1   ar
    28     9     4   ar
    29    27    22   ar
    30    16    19    1
    31    20    21    1
@<TRIPOS>MOLECULE
*****
 28 31 0 0 0
SMALL
GASTEIGER

@<TRIPOS>ATOM
      1 N         140.2226  138.3835  162.5430 N.ar    1  UNL1       -0.2116
      2 N         139.0391  137.7084  163.1705 N.ar    1  UNL1       -0.1621
      3 C         139.0939  137.9568  164.6488 C.ar    1  UNL1        0.1236
      4 C         140.3111  138.7853  164.9349 C.ar    1  UNL1        0.0580
      5 C         140.8744  139.3337  166.2124 C.ar    1  UNL1        0.0209
      6 C         142.1353  140.1458  166.1883 C.ar    1  UNL1        0.0679
      7 C         142.8329  140.4095  164.8869 C.ar    1  UNL1        0.1151
      8 N         142.2696  139.8611  163.6094 N.ar    1  UNL1       -0.2237
      9 C         141.0087  139.0490  163.6334 C.ar    1  UNL1        0.1653
     10 C         140.3501  138.4194  158.6639 C.ar    1  UNL1        0.0843
     11 C         139.5771  138.4212  159.9494 C.ar    1  UNL1        0.0307
     12 C         140.5606  138.3916  161.0816 C.ar    1  UNL1        0.0915
     13 C         141.9413  138.3714  160.4958 C.ar    1  UNL1        0.0548
     14 S         141.8113  138.3886  159.0016 S.2     1  UNL1       -0.0803
     15 C         138.7559  137.1888  155.2441 C.3     1  UNL1        0.1110
     16 N         139.3413  137.1642  156.6249 N.am    1  UNL1       -0.2987
     17 C         139.7646  138.4440  157.2830 C.2     1  UNL1        0.2520
     18 O         139.6024  139.7484  156.5603 O.2     1  UNL1       -0.2696
     19 H         139.4478  136.3082  157.0993 H       1  UNL1        0.1498
     20 N         142.6987  140.6942  167.4658 N.pl3   1  UNL1       -0.3107
     21 H         143.6666  140.6437  167.6387 H       1  UNL1        0.1523
     22 C         141.7873  141.3196  168.4799 C.ar    1  UNL1        0.0590
     23 C         141.2473  142.7004  168.2524 C.ar    1  UNL1        0.0155
     24 C         140.3359  143.3258  169.2665 C.ar    1  UNL1        0.0013
     25 C         139.9646  142.5703  170.5081 C.ar    1  UNL1        0.0009
     26 C         140.5046  141.1895  170.7355 C.ar    1  UNL1        0.0126
     27 C         141.4160  140.5642  169.7214 C.ar    1  UNL1        0.0710
     28 CL        141.9560  139.1833  169.9489 Cl      1  UNL1       -0.0810
@<TRIPOS>BOND
     1    15    16    1
     2    16    17   am
     3    17    18    2
     4    17    10    1
     5    10    11   ar
     6    11    12   ar
     7    12     1    1
     8     1     2   ar
     9     2     3   ar
    10     3     4   ar
    11     4     5   ar
    12     5     6   ar
    13     6    20    1
    14    20    22    1
    15    22    23   ar
    16    23    24   ar
    17    24    25   ar
    18    25    26   ar
    19    26    27   ar
    20    27    28    1
    21     6     7   ar
    22     7     8   ar
    23     8     9   ar
    24    12    13   ar
    25    13    14   ar
    26    14    10   ar
    27     9     1   ar
    28     9     4   ar
    29    27    22   ar
    30    16    19    1
    31    20    21    1
@<TRIPOS>MOLECULE
*****
 28 31 0 0 0
SMALL
GASTEIGER

@<TRIPOS>ATOM
      1 N         139.5255  138.9712  158.1965 N.ar    1  UNL1       -0.2116
      2 N         138.5991  139.8624  157.4235 N.ar    1  UNL1       -0.1621
      3 C         137.7535  140.6162  158.4067 C.ar    1  UNL1        0.1236
      4 C         138.1574  140.1909  159.7873 C.ar    1  UNL1        0.0580
      5 C         137.6694  140.5981  161.1460 C.ar    1  UNL1        0.0209
      6 C         138.2765  139.9886  162.3747 C.ar    1  UNL1        0.0679
      7 C         139.3717  138.9719  162.2448 C.ar    1  UNL1        0.1151
      8 N         139.8597  138.5647  160.8861 N.ar    1  UNL1       -0.2237
      9 C         139.2526  139.1742  159.6574 C.ar    1  UNL1        0.1653
     10 C         141.5911  136.3143  156.2626 C.ar    1  UNL1        0.0843
     11 C         140.2963  137.0182  156.5421 C.ar    1  UNL1        0.0307
     12 C         140.5459  138.0403  157.6113 C.ar    1  UNL1        0.0915
     13 C         141.9948  137.9681  157.9925 C.ar    1  UNL1        0.0548
     14 S         142.6409  136.9014  157.1589 S.2     1  UNL1       -0.0803
     15 C         141.4072  132.7640  154.4986 C.3     1  UNL1        0.1110
     16 N         141.1989  133.8622  155.4988 N.am    1  UNL1       -0.2987
     17 C         141.7995  135.2161  155.2622 C.2     1  UNL1        0.2520
     18 O         142.6086  135.4719  154.0253 O.2     1  UNL1       -0.2696
     19 H         140.6679  133.6943  156.3107 H       1  UNL1        0.1498
     20 N         137.7885  140.3958  163.7335 N.pl3   1  UNL1       -0.3107
     21 H         137.1624  139.8169  164.2255 H       1  UNL1        0.1523
     22 C         138.2546  141.6849  164.3425 C.ar    1  UNL1        0.0590
     23 C         137.5785  142.9737  163.9789 C.ar    1  UNL1        0.0155
     24 C         138.0446  144.2629  164.5880 C.ar    1  UNL1        0.0013
     25 C         139.1866  144.2632  165.5605 C.ar    1  UNL1        0.0009
     26 C         139.8626  142.9745  165.9240 C.ar    1  UNL1        0.0126
     27 C         139.3965  141.6853  165.3150 C.ar    1  UNL1        0.0710
     28 CL        140.0725  140.3965  165.6786 Cl      1  UNL1       -0.0810
@<TRIPOS>BOND
     1    15    16    1
     2    16    17   am
     3    17    18    2
     4    17    10    1
     5    10    11   ar
     6    11    12   ar
     7    12     1    1
     8     1     2   ar
     9     2     3   ar
    10     3     4   ar
    11     4     5   ar
    12     5     6   ar
    13     6    20    1
    14    20    22    1
    15    22    23   ar
    16    23    24   ar
    17    24    25   ar
    18    25    26   ar
    19    26    27   ar
    20    27    28    1
    21     6     7   ar
    22     7     8   ar
    23     8     9   ar
    24    12    13   ar
    25    13    14   ar
    26    14    10   ar
    27     9     1   ar
    28     9     4   ar
    29    27    22   ar
    30    16    19    1
    31    20    21    1
@<TRIPOS>MOLECULE
*****
 28 31 0 0 0
SMALL
GASTEIGER

@<TRIPOS>ATOM
      1 N         142.6818  143.8205  161.9794 N.ar    1  UNL1       -0.2116
      2 N         143.5306  144.9560  162.4694 N.ar    1  UNL1       -0.1621
      3 C         143.9172  144.6663  163.8895 C.ar    1  UNL1        0.1236
      4 C         143.3073  143.3518  164.2771 C.ar    1  UNL1        0.0580
      5 C         143.3486  142.5633  165.5524 C.ar    1  UNL1        0.0209
      6 C         142.6264  141.2521  165.6472 C.ar    1  UNL1        0.0679
      7 C         141.8629  140.7294  164.4666 C.ar    1  UNL1        0.1151
      8 N         141.8216  141.5178  163.1913 N.ar    1  UNL1       -0.2237
      9 C         142.5438  142.8291  163.0965 C.ar    1  UNL1        0.1653
     10 C         140.8928  144.2135  158.5573 C.ar    1  UNL1        0.0843
     11 C         141.3111  144.7652  159.8880 C.ar    1  UNL1        0.0307
     12 C         142.0771  143.6979  160.6121 C.ar    1  UNL1        0.0915
     13 C         142.1321  142.4868  159.7290 C.ar    1  UNL1        0.0548
     14 S         141.4002  142.8053  158.4590 S.2     1  UNL1       -0.0803
     15 C         139.3389  147.1699  156.4135 C.3     1  UNL1        0.1110
     16 N         140.1263  146.4412  157.4619 N.am    1  UNL1       -0.2987
     17 C         140.1053  144.9421  157.5089 C.2     1  UNL1        0.2520
     18 O         139.2969  144.1716  156.5075 O.2     1  UNL1       -0.2696
     19 H         140.6570  146.9469  158.1191 H       1  UNL1        0.1498
     20 N         142.6677  140.4635  166.9226 N.pl3   1  UNL1       -0.3107
     21 H         143.3454  139.7599  167.0446 H       1  UNL1        0.1523
     22 C         141.6764  140.7470  168.0120 C.ar    1  UNL1        0.0590
     23 C         140.3339  140.0778  167.9973 C.ar    1  UNL1        0.0155
     24 C         139.3426  140.3613  169.0867 C.ar    1  UNL1        0.0013
     25 C         139.6937  141.3140  170.1909 C.ar    1  UNL1        0.0009
     26 C         141.0361  141.9832  170.2056 C.ar    1  UNL1        0.0126
     27 C         142.0274  141.6997  169.1162 C.ar    1  UNL1        0.0710
     28 CL        143.3698  142.3689  169.1309 Cl      1  UNL1       -0.0810
@<TRIPOS>BOND
     1    15    16    1
     2    16    17   am
     3    17    18    2
     4    17    10    1
     5    10    11   ar
     6    11    12   ar
     7    12     1    1
     8     1     2   ar
     9     2     3   ar
    10     3     4   ar
    11     4     5   ar
    12     5     6   ar
    13     6    20    1
    14    20    22    1
    15    22    23   ar
    16    23    24   ar
    17    24    25   ar
    18    25    26   ar
    19    26    27   ar
    20    27    28    1
    21     6     7   ar
    22     7     8   ar
    23     8     9   ar
    24    12    13   ar
    25    13    14   ar
    26    14    10   ar
    27     9     1   ar
    28     9     4   ar
    29    27    22   ar
    30    16    19    1
    31    20    21    1
@<TRIPOS>MOLECULE
*****
 28 31 0 0 0
SMALL
GASTEIGER

@<TRIPOS>ATOM
      1 N         142.6641  143.9602  162.8004 N.ar    1  UNL1       -0.2116
      2 N         143.7702  144.7380  163.4496 N.ar    1  UNL1       -0.1621
      3 C         144.1368  144.0437  164.7278 C.ar    1  UNL1        0.1236
      4 C         143.2571  142.8369  164.8685 C.ar    1  UNL1        0.0580
      5 C         143.1674  141.7783  165.9274 C.ar    1  UNL1        0.0209
      6 C         142.1675  140.6681  165.7951 C.ar    1  UNL1        0.0679
      7 C         141.2573  140.6165  164.6040 C.ar    1  UNL1        0.1151
      8 N         141.3470  141.6751  163.5451 N.ar    1  UNL1       -0.2237
      9 C         142.3470  142.7853  163.6773 C.ar    1  UNL1        0.1653
     10 C         141.4594  144.3962  159.1366 C.ar    1  UNL1        0.0843
     11 C         142.4063  143.8144  160.1439 C.ar    1  UNL1        0.0307
     12 C         141.9928  144.2980  161.5022 C.ar    1  UNL1        0.0915
     13 C         140.7904  145.1788  161.3344 C.ar    1  UNL1        0.0548
     14 S         140.4606  145.2395  159.8724 S.2     1  UNL1       -0.0803
     15 C         142.7160  144.4484  155.3725 C.3     1  UNL1        0.1110
     16 N         142.6719  144.6708  156.8552 N.am    1  UNL1       -0.2987
     17 C         141.5034  144.1738  157.6538 C.2     1  UNL1        0.2520
     18 O         140.3790  143.4545  156.9695 O.2     1  UNL1       -0.2696
     19 H         143.4099  145.1429  157.3044 H       1  UNL1        0.1498
     20 N         142.0777  139.6094  166.8541 N.pl3   1  UNL1       -0.3107
     21 H         142.3113  138.6775  166.6395 H       1  UNL1        0.1523
     22 C         141.6319  139.9708  168.2400 C.ar    1  UNL1        0.0590
     23 C         142.6490  140.2829  169.2975 C.ar    1  UNL1        0.0155
     24 C         142.2033  140.6443  170.6834 C.ar    1  UNL1        0.0013
     25 C         140.7404  140.6936  171.0118 C.ar    1  UNL1        0.0009
     26 C         139.7234  140.3816  169.9543 C.ar    1  UNL1        0.0126
     27 C         140.1692  140.0202  168.5684 C.ar    1  UNL1        0.0710
     28 CL        139.1521  139.7082  167.5109 Cl      1  UNL1       -0.0810
@<TRIPOS>BOND
     1    15    16    1
     2    16    17   am
     3    17    18    2
     4    17    10    1
     5    10    11   ar
     6    11    12   ar
     7    12     1    1
     8     1     2   ar
     9     2     3   ar
    10     3     4   ar
    11     4     5   ar
    12     5     6   ar
    13     6    20    1
    14    20    22    1
    15    22    23   ar
    16    23    24   ar
    17    24    25   ar
    18    25    26   ar
    19    26    27   ar
    20    27    28    1
    21     6     7   ar
    22     7     8   ar
    23     8     9   ar
    24    12    13   ar
    25    13    14   ar
    26    14    10   ar
    27     9     1   ar
    28     9     4   ar
    29    27    22   ar
    30    16    19    1
    31    20    21    1
