@<TRIPOS>MOLECULE
*****
 36 39 0 0 0
SMALL
GASTEIGER

@<TRIPOS>ATOM
      1 N         141.8973  143.2873  160.9653 N.am    1  UNL1       -0.2996
      2 C         142.1701  144.1164  162.1853 C.2     1  UNL1        0.2353
      3 O         143.3635  145.0242  162.2238 O.2     1  UNL1       -0.2737
      4 H         141.1140  142.6915  160.9401 H       1  UNL1        0.1498
      5 C         141.2493  144.0375  163.3668 C.3     1  UNL1        0.1166
      6 N         141.2487  145.5194  163.1346 N.3     1  UNL1       -0.3162
      7 C         141.5696  142.5829  163.1886 C.3     1  UNL1        0.0739
      8 C         140.9690  141.5642  164.1112 C.3     1  UNL1        0.2039
      9 N         140.0480  141.9999  165.2121 N.pl3   1  UNL1       -0.1931
     10 C         139.7276  143.4544  165.3903 C.3     1  UNL1        0.2039
     11 C         140.3283  144.4732  164.4676 C.3     1  UNL1        0.0739
     12 H         141.8480  145.7391  162.3391 H       1  UNL1        0.1192
     13 H         141.6000  145.9939  163.9664 H       1  UNL1        0.1192
     14 C         139.4474  140.9811  166.1348 C.2     1  UNL1        0.3205
     15 N         138.4211  140.0158  165.6201 N.2     1  UNL1        0.0097
     16 C         137.8205  138.9971  166.5427 C.2     1  UNL1        0.4717
     17 N         138.2461  138.9435  167.9801 N.2     1  UNL1        0.0158
     18 C         139.2724  139.9088  168.4948 C.2     1  UNL1        0.3714
     19 N         139.8840  140.0946  169.8518 N.2     1  UNL1       -0.0339
     20 C         140.8627  141.2283  169.7678 C.2     1  UNL1        0.2323
     21 C         140.8559  141.7431  168.3589 C.2     1  UNL1        0.0486
     22 C         139.8730  140.9276  167.5721 C.3     1  UNL1        0.2428
     23 C         142.8181  143.3661  159.7838 C.3     1  UNL1        0.1138
     24 C         142.3874  144.0932  158.5445 C.ar    1  UNL1       -0.0028
     25 C         141.4307  145.2441  158.6444 C.ar    1  UNL1       -0.0018
     26 C         141.0000  145.9711  157.4050 C.ar    1  UNL1        0.0111
     27 C         141.5260  145.5473  156.0658 C.ar    1  UNL1        0.0577
     28 CL        141.0953  146.2742  154.8265 Cl      1  UNL1       -0.0822
     29 C         142.4827  144.3963  155.9659 C.ar    1  UNL1        0.0111
     30 C         142.9134  143.6693  157.2052 C.ar    1  UNL1       -0.0018
     31 C         144.1696  142.7179  159.8416 C.3     1  UNL1        0.1135
     32 C         145.7835  141.7669  163.3403 C.3     1  UNL1        0.0946
     33 C         144.9632  141.6805  162.0875 C.2     1  UNL1        0.2230
     34 O         144.1161  140.4701  161.8276 O.2     1  UNL1       -0.2751
     35 N         144.9899  142.8043  161.0944 N.am    1  UNL1       -0.3024
     36 H         145.5458  143.5988  161.2649 H       1  UNL1        0.1495
@<TRIPOS>BOND
     1    32    33    1
     2    33    34    2
     3    33    35   am
     4    35    31    1
     5    31    23    1
     6    23     1    1
     7     1     2   am
     8     2     3    2
     9     2     5    1
    10     5     6    1
    11     5     7    1
    12     7     8    1
    13     8     9    1
    14     9    14    1
    15    14    15    2
    16    15    16    1
    17    16    17    2
    18    17    18    1
    19    18    19    2
    20    19    20    1
    21    20    21    2
    22    21    22    1
    23     9    10    1
    24    10    11    1
    25    23    24    1
    26    24    25   ar
    27    25    26   ar
    28    26    27   ar
    29    27    28    1
    30    27    29   ar
    31    29    30   ar
    32    11     5    1
    33    30    24   ar
    34    22    14    1
    35    22    18    1
    36    35    36    1
    37     1     4    1
    38     6    12    1
    39     6    13    1
@<TRIPOS>MOLECULE
*****
 36 39 0 0 0
SMALL
GASTEIGER

@<TRIPOS>ATOM
      1 N         143.0066  141.2953  161.4023 N.am    1  UNL1       -0.2996
      2 C         144.1319  141.1059  162.3759 C.2     1  UNL1        0.2353
      3 O         145.4352  141.8173  162.1633 O.2     1  UNL1       -0.2737
      4 H         142.1512  140.8283  161.5418 H       1  UNL1        0.1498
      5 C         143.9538  140.2052  163.5620 C.3     1  UNL1        0.1166
      6 N         144.6380  139.2610  162.6185 N.3     1  UNL1       -0.3162
      7 C         143.3314  141.4622  164.0937 C.3     1  UNL1        0.0739
      8 C         142.7686  141.4906  165.4837 C.3     1  UNL1        0.2039
      9 N         142.8280  140.2619  166.3422 N.pl3   1  UNL1       -0.1931
     10 C         143.4504  139.0049  165.8106 C.3     1  UNL1        0.2039
     11 C         144.0132  138.9766  164.4204 C.3     1  UNL1        0.0739
     12 H         144.8317  139.7401  161.7390 H       1  UNL1        0.1192
     13 H         144.0334  138.4586  162.4425 H       1  UNL1        0.1192
     14 C         142.2651  140.2903  167.7323 C.2     1  UNL1        0.3205
     15 N         143.1590  140.5963  168.8973 N.2     1  UNL1        0.0097
     16 C         142.5962  140.6247  170.2873 C.2     1  UNL1        0.4717
     17 N         141.1393  140.3470  170.5125 N.2     1  UNL1        0.0158
     18 C         140.2454  140.0410  169.3475 C.2     1  UNL1        0.3714
     19 N         138.7808  139.7293  169.2610 N.2     1  UNL1       -0.0339
     20 C         138.4384  139.5082  167.8174 C.2     1  UNL1        0.2323
     21 C         139.6915  139.6833  167.0117 C.2     1  UNL1        0.0486
     22 C         140.8083  140.0126  167.9574 C.3     1  UNL1        0.2428
     23 C         143.1846  142.1960  160.2162 C.3     1  UNL1        0.1138
     24 C         143.7903  141.6611  158.9524 C.ar    1  UNL1       -0.0028
     25 C         143.2426  140.4117  158.3286 C.ar    1  UNL1       -0.0018
     26 C         143.8483  139.8768  157.0648 C.ar    1  UNL1        0.0111
     27 C         145.0015  140.5912  156.4249 C.ar    1  UNL1        0.0577
     28 CL        145.6072  140.0564  155.1612 Cl      1  UNL1       -0.0822
     29 C         145.5492  141.8406  157.0487 C.ar    1  UNL1        0.0111
     30 C         144.9436  142.3756  158.3124 C.ar    1  UNL1       -0.0018
     31 C         142.7571  143.6317  160.2938 C.3     1  UNL1        0.1135
     32 C         141.9809  145.2440  163.8361 C.3     1  UNL1        0.0946
     33 C         142.7373  144.7505  162.6386 C.2     1  UNL1        0.2230
     34 O         144.2307  144.8822  162.5882 O.2     1  UNL1       -0.2751
     35 N         142.0005  144.1252  161.4913 N.am    1  UNL1       -0.3024
     36 H         141.0204  144.0388  161.5243 H       1  UNL1        0.1495
@<TRIPOS>BOND
     1    32    33    1
     2    33    34    2
     3    33    35   am
     4    35    31    1
     5    31    23    1
     6    23     1    1
     7     1     2   am
     8     2     3    2
     9     2     5    1
    10     5     6    1
    11     5     7    1
    12     7     8    1
    13     8     9    1
    14     9    14    1
    15    14    15    2
    16    15    16    1
    17    16    17    2
    18    17    18    1
    19    18    19    2
    20    19    20    1
    21    20    21    2
    22    21    22    1
    23     9    10    1
    24    10    11    1
    25    23    24    1
    26    24    25   ar
    27    25    26   ar
    28    26    27   ar
    29    27    28    1
    30    27    29   ar
    31    29    30   ar
    32    11     5    1
    33    30    24   ar
    34    22    14    1
    35    22    18    1
    36    35    36    1
    37     1     4    1
    38     6    12    1
    39     6    13    1
@<TRIPOS>MOLECULE
*****
 36 39 0 0 0
SMALL
GASTEIGER

@<TRIPOS>ATOM
      1 N         141.0710  142.1811  164.3842 N.am    1  UNL1       -0.2996
      2 C         140.3048  143.4489  164.6201 C.2     1  UNL1        0.2353
      3 O         139.7857  143.7675  165.9909 O.2     1  UNL1       -0.2737
      4 H         141.4118  141.9720  163.4845 H       1  UNL1        0.1498
      5 C         140.0578  144.3981  163.4852 C.3     1  UNL1        0.1166
      6 N         139.3922  145.1476  164.6010 N.3     1  UNL1       -0.3162
      7 C         140.8093  143.3189  162.7635 C.3     1  UNL1        0.0739
      8 C         141.0825  143.4491  161.2944 C.3     1  UNL1        0.2039
      9 N         140.6044  144.6586  160.5469 N.pl3   1  UNL1       -0.1931
     10 C         139.8530  145.7378  161.2685 C.3     1  UNL1        0.2039
     11 C         139.5797  145.6075  162.7377 C.3     1  UNL1        0.0739
     12 H         139.4774  144.6149  165.4666 H       1  UNL1        0.1192
     13 H         138.4055  145.2813  164.3796 H       1  UNL1        0.1192
     14 C         140.8777  144.7888  159.0777 C.2     1  UNL1        0.3205
     15 N         141.9784  145.6870  158.5964 N.2     1  UNL1        0.0097
     16 C         142.2517  145.8173  157.1273 C.2     1  UNL1        0.4717
     17 N         141.4243  145.0493  156.1395 N.2     1  UNL1        0.0158
     18 C         140.3236  144.1511  156.6209 C.2     1  UNL1        0.3714
     19 N         139.3494  143.2765  155.8888 N.2     1  UNL1       -0.0339
     20 C         138.4740  142.6057  156.9055 C.2     1  UNL1        0.2323
     21 C         138.9072  143.0658  158.2659 C.2     1  UNL1        0.0486
     22 C         140.0503  144.0209  158.0900 C.3     1  UNL1        0.2428
     23 C         141.3181  141.2319  165.5191 C.3     1  UNL1        0.1138
     24 C         140.2166  140.3338  165.9989 C.ar    1  UNL1       -0.0028
     25 C         139.7198  140.4442  167.4099 C.ar    1  UNL1       -0.0018
     26 C         138.6183  139.5460  167.8896 C.ar    1  UNL1        0.0111
     27 C         138.0137  138.5374  166.9584 C.ar    1  UNL1        0.0577
     28 CL        136.9124  137.6393  167.4381 Cl      1  UNL1       -0.0822
     29 C         138.5106  138.4270  165.5474 C.ar    1  UNL1        0.0111
     30 C         139.6120  139.3251  165.0677 C.ar    1  UNL1       -0.0018
     31 C         142.6665  141.1809  166.1742 C.3     1  UNL1        0.1135
     32 C         143.4525  142.4418  169.8542 C.3     1  UNL1        0.0946
     33 C         143.1423  141.5298  168.7044 C.2     1  UNL1        0.2230
     34 O         142.9976  140.0547  168.9350 O.2     1  UNL1       -0.2751
     35 N         142.9768  142.0929  167.3240 N.am    1  UNL1       -0.3024
     36 H         143.0717  143.0610  167.1726 H       1  UNL1        0.1495
@<TRIPOS>BOND
     1    32    33    1
     2    33    34    2
     3    33    35   am
     4    35    31    1
     5    31    23    1
     6    23     1    1
     7     1     2   am
     8     2     3    2
     9     2     5    1
    10     5     6    1
    11     5     7    1
    12     7     8    1
    13     8     9    1
    14     9    14    1
    15    14    15    2
    16    15    16    1
    17    16    17    2
    18    17    18    1
    19    18    19    2
    20    19    20    1
    21    20    21    2
    22    21    22    1
    23     9    10    1
    24    10    11    1
    25    23    24    1
    26    24    25   ar
    27    25    26   ar
    28    26    27   ar
    29    27    28    1
    30    27    29   ar
    31    29    30   ar
    32    11     5    1
    33    30    24   ar
    34    22    14    1
    35    22    18    1
    36    35    36    1
    37     1     4    1
    38     6    12    1
    39     6    13    1
@<TRIPOS>MOLECULE
*****
 36 39 0 0 0
SMALL
GASTEIGER

@<TRIPOS>ATOM
      1 N         142.4914  140.8295  161.9235 N.am    1  UNL1       -0.2996
      2 C         143.6405  140.5463  162.8452 C.2     1  UNL1        0.2353
      3 O         145.0486  140.7680  162.3783 O.2     1  UNL1       -0.2737
      4 H         141.5671  140.6841  162.2300 H       1  UNL1        0.1498
      5 C         143.3813  140.0415  164.2337 C.3     1  UNL1        0.1166
      6 N         143.5780  138.7394  163.5157 N.3     1  UNL1       -0.3162
      7 C         143.2747  141.5191  164.4695 C.3     1  UNL1        0.0739
      8 C         142.9772  142.0396  165.8444 C.3     1  UNL1        0.2039
      9 N         142.7863  141.0825  166.9837 N.pl3   1  UNL1       -0.1931
     10 C         142.8930  139.6050  166.7479 C.3     1  UNL1        0.2039
     11 C         143.1905  139.0846  165.3729 C.3     1  UNL1        0.0739
     12 H         143.7690  138.9200  162.5301 H       1  UNL1        0.1192
     13 H         142.7335  138.1736  163.6002 H       1  UNL1        0.1192
     14 C         142.4888  141.6031  168.3586 C.2     1  UNL1        0.3205
     15 N         143.4738  142.4974  169.0514 N.2     1  UNL1        0.0097
     16 C         143.1764  143.0179  170.4263 C.2     1  UNL1        0.4717
     17 N         141.8938  142.6441  171.1086 N.2     1  UNL1        0.0158
     18 C         140.9088  141.7498  170.4158 C.2     1  UNL1        0.3714
     19 N         139.5718  141.2144  170.8350 N.2     1  UNL1       -0.0339
     20 C         139.0430  140.3629  169.7191 C.2     1  UNL1        0.2323
     21 C         140.0531  140.3721  168.6102 C.2     1  UNL1        0.0486
     22 C         141.2063  141.2293  169.0409 C.3     1  UNL1        0.2428
     23 C         142.7504  141.3344  160.5350 C.3     1  UNL1        0.1138
     24 C         142.8494  140.3681  159.3920 C.ar    1  UNL1       -0.0028
     25 C         143.5251  140.7801  158.1178 C.ar    1  UNL1       -0.0018
     26 C         143.6240  139.8138  156.9748 C.ar    1  UNL1        0.0111
     27 C         143.0473  138.4354  157.1060 C.ar    1  UNL1        0.0577
     28 CL        143.1462  137.4691  155.9631 Cl      1  UNL1       -0.0822
     29 C         142.3716  138.0233  158.3801 C.ar    1  UNL1        0.0111
     30 C         142.2726  138.9896  159.5232 C.ar    1  UNL1       -0.0018
     31 C         142.9105  142.8054  160.2895 C.3     1  UNL1        0.1135
     32 C         143.6841  145.0966  163.4363 C.3     1  UNL1        0.0946
     33 C         142.9374  144.2485  162.4498 C.2     1  UNL1        0.2230
     34 O         141.4708  143.9954  162.6370 O.2     1  UNL1       -0.2751
     35 N         143.6573  143.6535  161.2760 N.am    1  UNL1       -0.3024
     36 H         144.6198  143.8196  161.1531 H       1  UNL1        0.1495
@<TRIPOS>BOND
     1    32    33    1
     2    33    34    2
     3    33    35   am
     4    35    31    1
     5    31    23    1
     6    23     1    1
     7     1     2   am
     8     2     3    2
     9     2     5    1
    10     5     6    1
    11     5     7    1
    12     7     8    1
    13     8     9    1
    14     9    14    1
    15    14    15    2
    16    15    16    1
    17    16    17    2
    18    17    18    1
    19    18    19    2
    20    19    20    1
    21    20    21    2
    22    21    22    1
    23     9    10    1
    24    10    11    1
    25    23    24    1
    26    24    25   ar
    27    25    26   ar
    28    26    27   ar
    29    27    28    1
    30    27    29   ar
    31    29    30   ar
    32    11     5    1
    33    30    24   ar
    34    22    14    1
    35    22    18    1
    36    35    36    1
    37     1     4    1
    38     6    12    1
    39     6    13    1
@<TRIPOS>MOLECULE
*****
 36 39 0 0 0
SMALL
GASTEIGER

@<TRIPOS>ATOM
      1 N         140.0135  142.7180  161.1950 N.am    1  UNL1       -0.2996
      2 C         138.9224  143.0255  162.1773 C.2     1  UNL1        0.2353
      3 O         138.1200  144.2850  162.0371 O.2     1  UNL1       -0.2737
      4 H         140.5402  141.8913  161.2870 H       1  UNL1        0.1498
      5 C         138.6339  142.0734  163.2999 C.3     1  UNL1        0.1166
      6 N         137.3942  141.8880  162.4761 N.3     1  UNL1       -0.3162
      7 C         139.9738  142.5894  163.7340 C.3     1  UNL1        0.0739
      8 C         140.5946  142.0890  165.0044 C.3     1  UNL1        0.2039
      9 N         139.8756  141.0725  165.8409 N.pl3   1  UNL1       -0.1931
     10 C         138.5357  140.5564  165.4069 C.3     1  UNL1        0.2039
     11 C         137.9149  141.0569  164.1364 C.3     1  UNL1        0.0739
     12 H         137.4412  142.4867  161.6516 H       1  UNL1        0.1192
     13 H         136.5762  142.1380  163.0317 H       1  UNL1        0.1192
     14 C         140.4964  140.5720  167.1114 C.2     1  UNL1        0.3205
     15 N         139.9109  140.9613  168.4363 N.2     1  UNL1        0.0097
     16 C         140.5317  140.4610  169.7068 C.2     1  UNL1        0.4717
     17 N         141.7382  139.5712  169.6523 N.2     1  UNL1        0.0158
     18 C         142.3237  139.1819  168.3273 C.2     1  UNL1        0.3714
     19 N         143.4995  138.3249  167.9625 N.2     1  UNL1       -0.0339
     20 C         143.6053  138.2957  166.4665 C.2     1  UNL1        0.2323
     21 C         142.4949  139.1346  165.9068 C.2     1  UNL1        0.0486
     22 C         141.7028  139.6823  167.0569 C.3     1  UNL1        0.2428
     23 C         140.3022  143.6701  160.0724 C.3     1  UNL1        0.1138
     24 C         139.5410  143.5636  158.7842 C.ar    1  UNL1       -0.0028
     25 C         138.4237  142.5714  158.6531 C.ar    1  UNL1       -0.0018
     26 C         137.6626  142.4650  157.3649 C.ar    1  UNL1        0.0111
     27 C         138.0186  143.3507  156.2079 C.ar    1  UNL1        0.0577
     28 CL        137.2576  143.2442  154.9198 Cl      1  UNL1       -0.0822
     29 C         139.1359  144.3429  156.3391 C.ar    1  UNL1        0.0111
     30 C         139.8971  144.4494  157.6272 C.ar    1  UNL1       -0.0018
     31 C         141.3520  144.7286  160.2379 C.3     1  UNL1        0.1135
     32 C         143.4432  145.0346  163.5970 C.3     1  UNL1        0.0946
     33 C         143.0232  144.6031  162.2231 C.2     1  UNL1        0.2230
     34 O         143.8547  143.6146  161.4606 O.2     1  UNL1       -0.2751
     35 N         141.7718  145.1601  161.6118 N.am    1  UNL1       -0.3024
     36 H         141.2261  145.8089  162.1123 H       1  UNL1        0.1495
@<TRIPOS>BOND
     1    32    33    1
     2    33    34    2
     3    33    35   am
     4    35    31    1
     5    31    23    1
     6    23     1    1
     7     1     2   am
     8     2     3    2
     9     2     5    1
    10     5     6    1
    11     5     7    1
    12     7     8    1
    13     8     9    1
    14     9    14    1
    15    14    15    2
    16    15    16    1
    17    16    17    2
    18    17    18    1
    19    18    19    2
    20    19    20    1
    21    20    21    2
    22    21    22    1
    23     9    10    1
    24    10    11    1
    25    23    24    1
    26    24    25   ar
    27    25    26   ar
    28    26    27   ar
    29    27    28    1
    30    27    29   ar
    31    29    30   ar
    32    11     5    1
    33    30    24   ar
    34    22    14    1
    35    22    18    1
    36    35    36    1
    37     1     4    1
    38     6    12    1
    39     6    13    1
@<TRIPOS>MOLECULE
*****
 36 39 0 0 0
SMALL
GASTEIGER

@<TRIPOS>ATOM
      1 N         141.0608  142.2829  164.1827 N.am    1  UNL1       -0.2996
      2 C         140.3499  143.5804  164.4303 C.2     1  UNL1        0.2353
      3 O         139.9105  143.9420  165.8181 O.2     1  UNL1       -0.2737
      4 H         141.3491  142.0456  163.2718 H       1  UNL1        0.1498
      5 C         140.0784  144.5162  163.2899 C.3     1  UNL1        0.1166
      6 N         139.4129  145.2657  164.4057 N.3     1  UNL1       -0.3162
      7 C         140.8382  143.4417  162.5699 C.3     1  UNL1        0.0739
      8 C         141.0953  143.5632  161.0972 C.3     1  UNL1        0.2039
      9 N         140.5927  144.7593  160.3442 N.pl3   1  UNL1       -0.1931
     10 C         139.8330  145.8338  161.0641 C.3     1  UNL1        0.2039
     11 C         139.5758  145.7122  162.5369 C.3     1  UNL1        0.0739
     12 H         139.5140  144.7417  165.2750 H       1  UNL1        0.1192
     13 H         138.4223  145.3834  164.1930 H       1  UNL1        0.1192
     14 C         140.8499  144.8808  158.8715 C.2     1  UNL1        0.3205
     15 N         141.9639  145.7535  158.3742 N.2     1  UNL1        0.0097
     16 C         142.2211  145.8751  156.9015 C.2     1  UNL1        0.4717
     17 N         141.3643  145.1239  155.9259 N.2     1  UNL1        0.0158
     18 C         140.2503  144.2512  156.4232 C.2     1  UNL1        0.3714
     19 N         139.2476  143.3971  155.7055 N.2     1  UNL1       -0.0339
     20 C         138.3707  142.7478  156.7347 C.2     1  UNL1        0.2323
     21 C         138.8314  143.2005  158.0885 C.2     1  UNL1        0.0486
     22 C         139.9931  144.1297  157.8960 C.3     1  UNL1        0.2428
     23 C         141.3323  141.3471  165.3231 C.3     1  UNL1        0.1138
     24 C         140.2417  140.4545  165.8368 C.ar    1  UNL1       -0.0028
     25 C         139.4454  139.6167  164.8807 C.ar    1  UNL1       -0.0018
     26 C         138.3548  138.7242  165.3945 C.ar    1  UNL1        0.0111
     27 C         138.0604  138.6694  166.8642 C.ar    1  UNL1        0.0577
     28 CL        136.9699  137.7769  167.3780 Cl      1  UNL1       -0.0822
     29 C         138.8566  139.5072  167.8203 C.ar    1  UNL1        0.0111
     30 C         139.9473  140.3997  167.3066 C.ar    1  UNL1       -0.0018
     31 C         142.6944  141.3038  165.9498 C.3     1  UNL1        0.1135
     32 C         145.7819  141.7574  163.4978 C.3     1  UNL1        0.0946
     33 C         144.5799  142.0748  164.3372 C.2     1  UNL1        0.2230
     34 O         144.0614  143.4808  164.4033 O.2     1  UNL1       -0.2751
     35 N         143.8964  140.9863  165.1104 N.am    1  UNL1       -0.3024
     36 H         144.2367  140.0635  165.0670 H       1  UNL1        0.1495
@<TRIPOS>BOND
     1    32    33    1
     2    33    34    2
     3    33    35   am
     4    35    31    1
     5    31    23    1
     6    23     1    1
     7     1     2   am
     8     2     3    2
     9     2     5    1
    10     5     6    1
    11     5     7    1
    12     7     8    1
    13     8     9    1
    14     9    14    1
    15    14    15    2
    16    15    16    1
    17    16    17    2
    18    17    18    1
    19    18    19    2
    20    19    20    1
    21    20    21    2
    22    21    22    1
    23     9    10    1
    24    10    11    1
    25    23    24    1
    26    24    25   ar
    27    25    26   ar
    28    26    27   ar
    29    27    28    1
    30    27    29   ar
    31    29    30   ar
    32    11     5    1
    33    30    24   ar
    34    22    14    1
    35    22    18    1
    36    35    36    1
    37     1     4    1
    38     6    12    1
    39     6    13    1
@<TRIPOS>MOLECULE
*****
 36 39 0 0 0
SMALL
GASTEIGER

@<TRIPOS>ATOM
      1 N         142.5644  140.7243  161.9581 N.am    1  UNL1       -0.2996
      2 C         143.7644  140.5356  162.8381 C.2     1  UNL1        0.2353
      3 O         145.1248  140.9326  162.3466 O.2     1  UNL1       -0.2737
      4 H         141.6715  140.4638  162.2807 H       1  UNL1        0.1498
      5 C         143.6038  139.9500  164.2097 C.3     1  UNL1        0.1166
      6 N         144.6242  139.0083  163.6423 N.3     1  UNL1       -0.3162
      7 C         142.6390  141.0950  164.3008 C.3     1  UNL1        0.0739
      8 C         141.8682  141.3274  165.5663 C.3     1  UNL1        0.2039
      9 N         142.0619  140.4147  166.7409 N.pl3   1  UNL1       -0.1931
     10 C         143.0266  139.2697  166.6498 C.3     1  UNL1        0.2039
     11 C         143.7975  139.0373  165.3842 C.3     1  UNL1        0.0739
     12 H         144.8447  139.2826  162.6849 H       1  UNL1        0.1192
     13 H         144.2506  138.0593  163.6466 H       1  UNL1        0.1192
     14 C         141.2910  140.6471  168.0064 C.2     1  UNL1        0.3205
     15 N         139.9528  139.9975  168.1995 N.2     1  UNL1        0.0097
     16 C         139.1819  140.2299  169.4649 C.2     1  UNL1        0.4717
     17 N         139.7491  141.1119  170.5376 N.2     1  UNL1        0.0158
     18 C         141.0873  141.7615  170.3445 C.2     1  UNL1        0.3714
     19 N         141.8953  142.6743  171.2186 N.2     1  UNL1       -0.0339
     20 C         143.1656  143.0060  170.4932 C.2     1  UNL1        0.2323
     21 C         143.1427  142.2982  169.1708 C.2     1  UNL1        0.0486
     22 C         141.8582  141.5291  169.0790 C.3     1  UNL1        0.2428
     23 C         142.7249  141.3100  160.5865 C.3     1  UNL1        0.1138
     24 C         142.8784  140.4070  159.3986 C.ar    1  UNL1       -0.0028
     25 C         142.4310  138.9776  159.4803 C.ar    1  UNL1       -0.0018
     26 C         142.5846  138.0746  158.2924 C.ar    1  UNL1        0.0111
     27 C         143.1855  138.6009  157.0229 C.ar    1  UNL1        0.0577
     28 CL        143.3390  137.6980  155.8351 Cl      1  UNL1       -0.0822
     29 C         143.6329  140.0303  156.9412 C.ar    1  UNL1        0.0111
     30 C         143.4794  140.9333  158.1290 C.ar    1  UNL1       -0.0018
     31 C         142.7319  142.7987  160.4027 C.3     1  UNL1        0.1135
     32 C         142.3358  145.2981  163.4599 C.3     1  UNL1        0.0946
     33 C         142.9647  144.4119  162.4260 C.2     1  UNL1        0.2230
     34 O         144.4556  144.2526  162.3814 O.2     1  UNL1       -0.2751
     35 N         142.1029  143.6849  161.4367 N.am    1  UNL1       -0.3024
     36 H         141.1244  143.7895  161.4659 H       1  UNL1        0.1495
@<TRIPOS>BOND
     1    32    33    1
     2    33    34    2
     3    33    35   am
     4    35    31    1
     5    31    23    1
     6    23     1    1
     7     1     2   am
     8     2     3    2
     9     2     5    1
    10     5     6    1
    11     5     7    1
    12     7     8    1
    13     8     9    1
    14     9    14    1
    15    14    15    2
    16    15    16    1
    17    16    17    2
    18    17    18    1
    19    18    19    2
    20    19    20    1
    21    20    21    2
    22    21    22    1
    23     9    10    1
    24    10    11    1
    25    23    24    1
    26    24    25   ar
    27    25    26   ar
    28    26    27   ar
    29    27    28    1
    30    27    29   ar
    31    29    30   ar
    32    11     5    1
    33    30    24   ar
    34    22    14    1
    35    22    18    1
    36    35    36    1
    37     1     4    1
    38     6    12    1
    39     6    13    1
@<TRIPOS>MOLECULE
*****
 36 39 0 0 0
SMALL
GASTEIGER

@<TRIPOS>ATOM
      1 N         140.0263  141.8045  164.0586 N.am    1  UNL1       -0.2996
      2 C         139.0743  140.6518  164.1806 C.2     1  UNL1        0.2353
      3 O         138.1673  140.5509  165.3710 O.2     1  UNL1       -0.2737
      4 H         140.6216  141.8707  163.2772 H       1  UNL1        0.1498
      5 C         139.0294  139.5999  163.1122 C.3     1  UNL1        0.1166
      6 N         138.6147  138.7827  164.2996 N.3     1  UNL1       -0.3162
      7 C         139.4597  140.7825  162.2957 C.3     1  UNL1        0.0739
      8 C         139.7010  140.6294  160.8232 C.3     1  UNL1        0.2039
      9 N         139.5121  139.2937  160.1671 N.pl3   1  UNL1       -0.1931
     10 C         139.0818  138.1112  160.9835 C.3     1  UNL1        0.2039
     11 C         138.8405  138.2643  162.4561 C.3     1  UNL1        0.0739
     12 H         138.5968  139.3746  165.1302 H       1  UNL1        0.1192
     13 H         139.2803  138.0224  164.4382 H       1  UNL1        0.1192
     14 C         139.7534  139.1406  158.6946 C.2     1  UNL1        0.3205
     15 N         140.8595  138.2540  158.2040 N.2     1  UNL1        0.0097
     16 C         141.1008  138.1010  156.7316 C.2     1  UNL1        0.4717
     17 N         140.2362  138.8345  155.7495 N.2     1  UNL1        0.0158
     18 C         139.1301  139.7211  156.2401 C.2     1  UNL1        0.3714
     19 N         138.1227  140.5633  155.5151 N.2     1  UNL1       -0.0339
     20 C         137.2586  141.2370  156.5397 C.2     1  UNL1        0.2323
     21 C         137.7321  140.8110  157.8978 C.2     1  UNL1        0.0486
     22 C         138.8888  139.8741  157.7126 C.3     1  UNL1        0.2428
     23 C         140.0713  142.8564  165.1270 C.3     1  UNL1        0.1138
     24 C         140.9811  142.6878  166.3076 C.ar    1  UNL1       -0.0028
     25 C         142.4394  142.4071  166.0967 C.ar    1  UNL1       -0.0018
     26 C         143.3491  142.2385  167.2774 C.ar    1  UNL1        0.0111
     27 C         142.8006  142.3506  168.6689 C.ar    1  UNL1        0.0577
     28 CL        143.7103  142.1820  169.8495 Cl      1  UNL1       -0.0822
     29 C         141.3423  142.6312  168.8799 C.ar    1  UNL1        0.0111
     30 C         140.4325  142.7998  167.6992 C.ar    1  UNL1       -0.0018
     31 C         139.2065  144.0768  165.0148 C.3     1  UNL1        0.1135
     32 C         139.6821  146.3294  161.7821 C.3     1  UNL1        0.0946
     33 C         139.2659  145.1943  162.6701 C.2     1  UNL1        0.2230
     34 O         138.4928  144.0417  162.1012 O.2     1  UNL1       -0.2751
     35 N         139.6227  145.2119  164.1269 N.am    1  UNL1       -0.3024
     36 H         140.1302  145.9685  164.5003 H       1  UNL1        0.1495
@<TRIPOS>BOND
     1    32    33    1
     2    33    34    2
     3    33    35   am
     4    35    31    1
     5    31    23    1
     6    23     1    1
     7     1     2   am
     8     2     3    2
     9     2     5    1
    10     5     6    1
    11     5     7    1
    12     7     8    1
    13     8     9    1
    14     9    14    1
    15    14    15    2
    16    15    16    1
    17    16    17    2
    18    17    18    1
    19    18    19    2
    20    19    20    1
    21    20    21    2
    22    21    22    1
    23     9    10    1
    24    10    11    1
    25    23    24    1
    26    24    25   ar
    27    25    26   ar
    28    26    27   ar
    29    27    28    1
    30    27    29   ar
    31    29    30   ar
    32    11     5    1
    33    30    24   ar
    34    22    14    1
    35    22    18    1
    36    35    36    1
    37     1     4    1
    38     6    12    1
    39     6    13    1
@<TRIPOS>MOLECULE
*****
 36 39 0 0 0
SMALL
GASTEIGER

@<TRIPOS>ATOM
      1 N         140.6995  140.4795  164.6018 N.am    1  UNL1       -0.2996
      2 C         139.3099  140.2467  164.0872 C.2     1  UNL1        0.2353
      3 O         138.5394  139.0377  164.5283 O.2     1  UNL1       -0.2737
      4 H         141.2052  141.2730  164.3123 H       1  UNL1        0.1498
      5 C         138.6909  141.2231  163.1315 C.3     1  UNL1        0.1166
      6 N         137.5271  140.9806  164.0461 N.3     1  UNL1       -0.3162
      7 C         140.0697  141.1266  162.5487 C.3     1  UNL1        0.0739
      8 C         140.4253  141.9222  161.3279 C.3     1  UNL1        0.2039
      9 N         139.4021  142.8145  160.6897 N.pl3   1  UNL1       -0.1931
     10 C         138.0233  142.9110  161.2725 C.3     1  UNL1        0.2039
     11 C         137.6677  142.1153  162.4934 C.3     1  UNL1        0.0739
     12 H         137.7978  140.3174  164.7723 H       1  UNL1        0.1192
     13 H         136.7475  140.5989  163.5105 H       1  UNL1        0.1192
     14 C         139.7578  143.6101  159.4689 C.2     1  UNL1        0.3205
     15 N         140.7228  144.7537  159.5738 N.2     1  UNL1        0.0097
     16 C         141.0784  145.5493  158.3530 C.2     1  UNL1        0.4717
     17 N         140.4691  145.2014  157.0272 N.2     1  UNL1        0.0158
     18 C         139.5041  144.0578  156.9223 C.2     1  UNL1        0.3714
     19 N         138.7495  143.4847  155.7594 N.2     1  UNL1       -0.0339
     20 C         137.9275  142.3349  156.2616 C.2     1  UNL1        0.2323
     21 C         138.1740  142.1973  157.7348 C.2     1  UNL1        0.0486
     22 C         139.1484  143.2622  158.1431 C.3     1  UNL1        0.2428
     23 C         141.3187  139.5031  165.5576 C.3     1  UNL1        0.1138
     24 C         141.2510  139.7541  167.0349 C.ar    1  UNL1       -0.0028
     25 C         139.9263  140.0009  167.6938 C.ar    1  UNL1       -0.0018
     26 C         139.8588  140.2519  169.1712 C.ar    1  UNL1        0.0111
     27 C         141.1158  140.2561  169.9895 C.ar    1  UNL1        0.0577
     28 CL        141.0482  140.5070  171.4667 Cl      1  UNL1       -0.0822
     29 C         142.4405  140.0092  169.3306 C.ar    1  UNL1        0.0111
     30 C         142.5081  139.7582  167.8533 C.ar    1  UNL1       -0.0018
     31 C         142.0054  138.2758  165.0360 C.3     1  UNL1        0.1135
     32 C         142.7344  137.8544  161.1577 C.3     1  UNL1        0.0946
     33 C         142.0265  137.8132  162.4795 C.2     1  UNL1        0.2230
     34 O         140.6317  137.2682  162.5666 O.2     1  UNL1       -0.2751
     35 N         142.7133  138.3170  163.7142 N.am    1  UNL1       -0.3024
     36 H         143.6288  138.6747  163.6570 H       1  UNL1        0.1495
@<TRIPOS>BOND
     1    32    33    1
     2    33    34    2
     3    33    35   am
     4    35    31    1
     5    31    23    1
     6    23     1    1
     7     1     2   am
     8     2     3    2
     9     2     5    1
    10     5     6    1
    11     5     7    1
    12     7     8    1
    13     8     9    1
    14     9    14    1
    15    14    15    2
    16    15    16    1
    17    16    17    2
    18    17    18    1
    19    18    19    2
    20    19    20    1
    21    20    21    2
    22    21    22    1
    23     9    10    1
    24    10    11    1
    25    23    24    1
    26    24    25   ar
    27    25    26   ar
    28    26    27   ar
    29    27    28    1
    30    27    29   ar
    31    29    30   ar
    32    11     5    1
    33    30    24   ar
    34    22    14    1
    35    22    18    1
    36    35    36    1
    37     1     4    1
    38     6    12    1
    39     6    13    1
