@<TRIPOS>MOLECULE
*****
 40 45 0 0 0
SMALL
GASTEIGER

@<TRIPOS>ATOM
      1 C         136.7730  143.3781  155.1458 C.3     1  UNL1        0.0437
      2 C         137.4179  142.0811  155.5359 C.3     1  UNL1        0.1368
      3 C         137.1601  141.8169  154.0820 C.3     1  UNL1        0.0437
      4 C         137.9731  140.6924  155.4211 C.3     1  UNL1        0.0643
      5 C         138.5623  140.0183  156.6246 C.3     1  UNL1        0.1023
      6 C         138.5961  140.7329  157.9430 C.ar    1  UNL1        0.0488
      7 C         139.1852  140.0588  159.1466 C.ar    1  UNL1        0.0034
      8 C         139.2191  140.7734  160.4650 C.ar    1  UNL1        0.0177
      9 C         138.6638  142.1621  160.5799 C.ar    1  UNL1        0.0851
     10 N         138.0747  142.8362  159.3763 N.ar    1  UNL1       -0.2119
     11 C         138.0408  142.1216  158.0579 C.ar    1  UNL1        0.2219
     12 O         137.4517  142.7957  156.8543 O.3     1  UNL1       -0.4676
     13 C         138.6976  142.8767  161.8983 C.ar    1  UNL1        0.0284
     14 C         137.6330  142.6133  162.9216 C.ar    1  UNL1        0.0032
     15 C         137.6669  143.3279  164.2401 C.ar    1  UNL1        0.0115
     16 C         138.7654  144.3058  164.5351 C.ar    1  UNL1        0.0585
     17 CL        138.7992  145.0204  165.8535 Cl      1  UNL1       -0.0822
     18 C         139.8299  144.5692  163.5117 C.ar    1  UNL1        0.0228
     19 C         139.7961  143.8546  162.1933 C.ar    1  UNL1        0.0599
     20 CL        140.8607  144.1180  161.1700 Cl      1  UNL1       -0.0822
     21 C         139.8082  140.0992  161.6685 C.ar    1  UNL1        0.0015
     22 C         141.2314  140.3694  162.0579 C.ar    1  UNL1        0.0009
     23 C         141.8205  139.6953  163.2614 C.ar    1  UNL1        0.0114
     24 C         140.9864  138.7510  164.0756 C.ar    1  UNL1        0.0577
     25 CL        141.5755  138.0769  165.2791 Cl      1  UNL1       -0.0822
     26 C         139.5633  138.4809  163.6862 C.ar    1  UNL1        0.0114
     27 C         138.9742  139.1550  162.4826 C.ar    1  UNL1        0.0009
     28 N         139.1175  138.6296  156.5097 N.am    1  UNL1       -0.2987
     29 C         140.5225  138.4212  156.0273 C.2     1  UNL1        0.2424
     30 O         141.3721  139.6014  155.6598 O.2     1  UNL1       -0.2705
     31 H         138.5599  137.8550  156.7509 H       1  UNL1        0.1500
     32 C         141.0777  137.0324  155.9124 C.2     1  UNL1        0.0357
     33 C         140.5999  136.1216  154.8206 C.2     1  UNL1        0.0021
     34 C         141.1551  134.7329  154.7057 C.2     1  UNL1        0.0205
     35 C         142.1882  134.2551  155.6826 C.2     1  UNL1        0.1007
     36 N         142.9127  132.9487  155.8185 N.2     1  UNL1       -0.1482
     37 N         143.8383  133.0521  156.9943 N.2     1  UNL1       -0.1467
     38 C         143.6859  134.4224  157.5851 C.2     1  UNL1        0.1197
     39 C         142.6661  135.1659  156.7744 C.2     1  UNL1        0.0227
     40 C         142.1108  136.5546  156.8893 C.3     1  UNL1        0.0604
@<TRIPOS>BOND
     1     1     2    1
     2     2     3    1
     3     2     4    1
     4     4     5    1
     5     5    28    1
     6    28    29   am
     7    29    30    2
     8    29    32    1
     9    32    33    2
    10    33    34    1
    11    34    35    2
    12    35    36    1
    13    36    37    2
    14    37    38    1
    15    38    39    2
    16    39    40    1
    17     5     6    1
    18     6     7   ar
    19     7     8   ar
    20     8    21    1
    21    21    22   ar
    22    22    23   ar
    23    23    24   ar
    24    24    25    1
    25    24    26   ar
    26    26    27   ar
    27     8     9   ar
    28     9    13    1
    29    13    14   ar
    30    14    15   ar
    31    15    16   ar
    32    16    17    1
    33    16    18   ar
    34    18    19   ar
    35    19    20    1
    36     9    10   ar
    37    10    11   ar
    38    11    12    1
    39    12     2    1
    40    40    32    1
    41    11     6   ar
    42    39    35    1
    43    27    21   ar
    44    19    13   ar
    45    28    31    1
@<TRIPOS>MOLECULE
*****
 40 45 0 0 0
SMALL
GASTEIGER

@<TRIPOS>ATOM
      1 C         143.7054  143.0679  155.3579 C.3     1  UNL1        0.0437
      2 C         143.5927  141.6611  155.8663 C.3     1  UNL1        0.1368
      3 C         144.3589  141.4197  154.5995 C.3     1  UNL1        0.0437
      4 C         143.7460  140.1706  155.9347 C.3     1  UNL1        0.0643
      5 C         143.1723  139.4100  157.0934 C.3     1  UNL1        0.1023
      6 C         142.4454  140.1400  158.1836 C.ar    1  UNL1        0.0488
      7 C         141.8717  139.3794  159.3422 C.ar    1  UNL1        0.0034
      8 C         141.1447  140.1094  160.4324 C.ar    1  UNL1        0.0177
      9 C         140.9914  141.6000  160.3640 C.ar    1  UNL1        0.0851
     10 N         141.5650  142.3606  159.2054 N.ar    1  UNL1       -0.2119
     11 C         142.2920  141.6305  158.1151 C.ar    1  UNL1        0.2219
     12 O         142.8657  142.3911  156.9565 O.3     1  UNL1       -0.4676
     13 C         140.2644  142.3300  161.4542 C.ar    1  UNL1        0.0284
     14 C         138.7782  142.5151  161.3711 C.ar    1  UNL1        0.0032
     15 C         138.0512  143.2452  162.4614 C.ar    1  UNL1        0.0115
     16 C         138.8104  143.7900  163.6347 C.ar    1  UNL1        0.0585
     17 CL        138.0834  144.5200  164.7249 Cl      1  UNL1       -0.0822
     18 C         140.2966  143.6048  163.7178 C.ar    1  UNL1        0.0228
     19 C         141.0236  142.8748  162.6276 C.ar    1  UNL1        0.0599
     20 CL        142.5098  142.6897  162.7107 Cl      1  UNL1       -0.0822
     21 C         140.5711  139.3488  161.5911 C.ar    1  UNL1        0.0015
     22 C         139.1896  138.7715  161.4991 C.ar    1  UNL1        0.0009
     23 C         138.6159  138.0109  162.6577 C.ar    1  UNL1        0.0114
     24 C         139.4237  137.8277  163.9083 C.ar    1  UNL1        0.0577
     25 CL        138.8501  137.0671  165.0670 Cl      1  UNL1       -0.0822
     26 C         140.8051  138.4050  164.0003 C.ar    1  UNL1        0.0114
     27 C         141.3787  139.1656  162.8416 C.ar    1  UNL1        0.0009
     28 N         143.3257  137.9194  157.1618 N.am    1  UNL1       -0.2987
     29 C         142.4618  137.0367  156.3106 C.2     1  UNL1        0.2424
     30 O         141.4445  137.6446  155.3910 O.2     1  UNL1       -0.2705
     31 H         143.9934  137.5204  157.7653 H       1  UNL1        0.1500
     32 C         142.6151  135.5461  156.3790 C.2     1  UNL1        0.0357
     33 C         141.6587  134.6590  155.6386 C.2     1  UNL1        0.0021
     34 C         141.8120  133.1684  155.7069 C.2     1  UNL1        0.0205
     35 C         142.9218  132.5650  156.5158 C.2     1  UNL1        0.1007
     36 N         143.3198  131.1410  156.7686 N.2     1  UNL1       -0.1482
     37 N         144.5222  131.1480  157.6654 N.2     1  UNL1       -0.1467
     38 C         144.8673  132.5763  157.9667 C.2     1  UNL1        0.1197
     39 C         143.8782  133.4521  157.2562 C.2     1  UNL1        0.0227
     40 C         143.7249  134.9426  157.1878 C.3     1  UNL1        0.0604
@<TRIPOS>BOND
     1     1     2    1
     2     2     3    1
     3     2     4    1
     4     4     5    1
     5     5    28    1
     6    28    29   am
     7    29    30    2
     8    29    32    1
     9    32    33    2
    10    33    34    1
    11    34    35    2
    12    35    36    1
    13    36    37    2
    14    37    38    1
    15    38    39    2
    16    39    40    1
    17     5     6    1
    18     6     7   ar
    19     7     8   ar
    20     8    21    1
    21    21    22   ar
    22    22    23   ar
    23    23    24   ar
    24    24    25    1
    25    24    26   ar
    26    26    27   ar
    27     8     9   ar
    28     9    13    1
    29    13    14   ar
    30    14    15   ar
    31    15    16   ar
    32    16    17    1
    33    16    18   ar
    34    18    19   ar
    35    19    20    1
    36     9    10   ar
    37    10    11   ar
    38    11    12    1
    39    12     2    1
    40    40    32    1
    41    11     6   ar
    42    39    35    1
    43    27    21   ar
    44    19    13   ar
    45    28    31    1
@<TRIPOS>MOLECULE
*****
 40 45 0 0 0
SMALL
GASTEIGER

@<TRIPOS>ATOM
      1 C         146.5469  143.1522  154.0356 C.3     1  UNL1        0.0437
      2 C         146.0530  141.8056  154.4748 C.3     1  UNL1        0.1368
      3 C         146.5891  141.4567  153.1180 C.3     1  UNL1        0.0437
      4 C         145.7452  140.3379  154.4427 C.3     1  UNL1        0.0643
      5 C         145.0730  139.6868  155.6150 C.3     1  UNL1        0.1023
      6 C         144.7085  140.5033  156.8192 C.ar    1  UNL1        0.0488
      7 C         144.0362  139.8522  157.9914 C.ar    1  UNL1        0.0034
      8 C         143.6717  140.6687  159.1957 C.ar    1  UNL1        0.0177
      9 C         143.9794  142.1365  159.2278 C.ar    1  UNL1        0.0851
     10 N         144.6517  142.7877  158.0556 N.ar    1  UNL1       -0.2119
     11 C         145.0162  141.9710  156.8513 C.ar    1  UNL1        0.2219
     12 O         145.6885  142.6222  155.6791 O.3     1  UNL1       -0.4676
     13 C         143.6149  142.9531  160.4321 C.ar    1  UNL1        0.0284
     14 C         144.5831  143.0846  161.5702 C.ar    1  UNL1        0.0032
     15 C         144.2185  143.9012  162.7745 C.ar    1  UNL1        0.0115
     16 C         142.8858  144.5863  162.8406 C.ar    1  UNL1        0.0585
     17 CL        142.5213  145.4028  164.0449 Cl      1  UNL1       -0.0822
     18 C         141.9176  144.4548  161.7025 C.ar    1  UNL1        0.0228
     19 C         142.2821  143.6383  160.4983 C.ar    1  UNL1        0.0599
     20 CL        141.3139  143.5068  159.3601 Cl      1  UNL1       -0.0822
     21 C         142.9994  140.0176  160.3679 C.ar    1  UNL1        0.0015
     22 C         141.5020  139.9760  160.4457 C.ar    1  UNL1        0.0009
     23 C         140.8297  139.3249  161.6180 C.ar    1  UNL1        0.0114
     24 C         141.6549  138.7153  162.7123 C.ar    1  UNL1        0.0577
     25 CL        140.9826  138.0642  163.8845 Cl      1  UNL1       -0.0822
     26 C         143.1523  138.7569  162.6344 C.ar    1  UNL1        0.0114
     27 C         143.8245  139.4080  161.4622 C.ar    1  UNL1        0.0009
     28 N         144.7652  138.2190  155.5828 N.am    1  UNL1       -0.2987
     29 C         143.4319  137.7429  155.0874 C.2     1  UNL1        0.2424
     30 O         142.4063  138.7345  154.6240 O.2     1  UNL1       -0.2705
     31 H         145.4384  137.5681  155.8870 H       1  UNL1        0.1500
     32 C         143.1242  136.2751  155.0553 C.2     1  UNL1        0.0357
     33 C         142.4078  135.6846  153.8771 C.2     1  UNL1        0.0021
     34 C         142.1000  134.2169  153.8449 C.2     1  UNL1        0.0205
     35 C         142.5087  133.3397  154.9910 C.2     1  UNL1        0.1007
     36 N         142.3428  131.8696  155.2386 N.2     1  UNL1       -0.1482
     37 N         142.9566  131.5514  156.5697 N.2     1  UNL1       -0.1467
     38 C         143.5019  132.8250  157.1448 C.2     1  UNL1        0.1197
     39 C         143.2251  133.9301  156.1691 C.2     1  UNL1        0.0227
     40 C         143.5329  135.3978  156.2013 C.3     1  UNL1        0.0604
@<TRIPOS>BOND
     1     1     2    1
     2     2     3    1
     3     2     4    1
     4     4     5    1
     5     5    28    1
     6    28    29   am
     7    29    30    2
     8    29    32    1
     9    32    33    2
    10    33    34    1
    11    34    35    2
    12    35    36    1
    13    36    37    2
    14    37    38    1
    15    38    39    2
    16    39    40    1
    17     5     6    1
    18     6     7   ar
    19     7     8   ar
    20     8    21    1
    21    21    22   ar
    22    22    23   ar
    23    23    24   ar
    24    24    25    1
    25    24    26   ar
    26    26    27   ar
    27     8     9   ar
    28     9    13    1
    29    13    14   ar
    30    14    15   ar
    31    15    16   ar
    32    16    17    1
    33    16    18   ar
    34    18    19   ar
    35    19    20    1
    36     9    10   ar
    37    10    11   ar
    38    11    12    1
    39    12     2    1
    40    40    32    1
    41    11     6   ar
    42    39    35    1
    43    27    21   ar
    44    19    13   ar
    45    28    31    1
@<TRIPOS>MOLECULE
*****
 40 45 0 0 0
SMALL
GASTEIGER

@<TRIPOS>ATOM
      1 C         143.9694  142.9267  155.3759 C.3     1  UNL1        0.0437
      2 C         143.7811  141.5303  155.8904 C.3     1  UNL1        0.1368
      3 C         144.5222  141.2416  154.6186 C.3     1  UNL1        0.0437
      4 C         143.8501  140.0337  155.9633 C.3     1  UNL1        0.0643
      5 C         143.2435  139.3108  157.1292 C.3     1  UNL1        0.1023
      6 C         142.5677  140.0845  158.2222 C.ar    1  UNL1        0.0488
      7 C         141.9611  139.3615  159.3881 C.ar    1  UNL1        0.0034
      8 C         141.2853  140.1352  160.4811 C.ar    1  UNL1        0.0177
      9 C         141.2162  141.6319  160.4083 C.ar    1  UNL1        0.0851
     10 N         141.8229  142.3548  159.2424 N.ar    1  UNL1       -0.2119
     11 C         142.4987  141.5811  158.1493 C.ar    1  UNL1        0.2219
     12 O         143.1053  142.3040  156.9834 O.3     1  UNL1       -0.4676
     13 C         140.5405  142.4055  161.5014 C.ar    1  UNL1        0.0284
     14 C         141.3351  142.8941  162.6761 C.ar    1  UNL1        0.0032
     15 C         140.6593  143.6678  163.7691 C.ar    1  UNL1        0.0115
     16 C         139.1890  143.9529  163.6875 C.ar    1  UNL1        0.0585
     17 CL        138.5132  144.7266  164.7805 Cl      1  UNL1       -0.0822
     18 C         138.3943  143.4644  162.5128 C.ar    1  UNL1        0.0228
     19 C         139.0701  142.6907  161.4197 C.ar    1  UNL1        0.0599
     20 CL        138.2755  142.2022  160.2450 Cl      1  UNL1       -0.0822
     21 C         140.6787  139.4122  161.6470 C.ar    1  UNL1        0.0015
     22 C         139.2669  138.9115  161.5669 C.ar    1  UNL1        0.0009
     23 C         138.6603  138.1886  162.7328 C.ar    1  UNL1        0.0114
     24 C         139.4653  137.9664  163.9788 C.ar    1  UNL1        0.0577
     25 CL        138.8587  137.2434  165.1447 Cl      1  UNL1       -0.0822
     26 C         140.8770  138.4671  164.0589 C.ar    1  UNL1        0.0114
     27 C         141.4837  139.1900  162.8930 C.ar    1  UNL1        0.0009
     28 N         143.3125  137.8141  157.2020 N.am    1  UNL1       -0.2987
     29 C         142.4504  136.9789  156.3025 C.2     1  UNL1        0.2424
     30 O         141.5192  137.6402  155.3302 O.2     1  UNL1       -0.2705
     31 H         143.9238  137.3800  157.8401 H       1  UNL1        0.1500
     32 C         142.5195  135.4822  156.3753 C.2     1  UNL1        0.0357
     33 C         143.4434  134.8208  157.3546 C.2     1  UNL1        0.0021
     34 C         143.5125  133.3242  157.4275 C.2     1  UNL1        0.0205
     35 C         142.6578  132.4890  156.5210 C.2     1  UNL1        0.1007
     36 N         142.5118  131.0042  156.3659 N.2     1  UNL1       -0.1482
     37 N         141.4978  130.7478  155.2908 N.2     1  UNL1       -0.1467
     38 C         141.0170  132.0742  154.7814 C.2     1  UNL1        0.1197
     39 C         141.7339  133.1503  155.5417 C.2     1  UNL1        0.0227
     40 C         141.6647  134.6469  155.4689 C.3     1  UNL1        0.0604
@<TRIPOS>BOND
     1     1     2    1
     2     2     3    1
     3     2     4    1
     4     4     5    1
     5     5    28    1
     6    28    29   am
     7    29    30    2
     8    29    32    1
     9    32    33    2
    10    33    34    1
    11    34    35    2
    12    35    36    1
    13    36    37    2
    14    37    38    1
    15    38    39    2
    16    39    40    1
    17     5     6    1
    18     6     7   ar
    19     7     8   ar
    20     8    21    1
    21    21    22   ar
    22    22    23   ar
    23    23    24   ar
    24    24    25    1
    25    24    26   ar
    26    26    27   ar
    27     8     9   ar
    28     9    13    1
    29    13    14   ar
    30    14    15   ar
    31    15    16   ar
    32    16    17    1
    33    16    18   ar
    34    18    19   ar
    35    19    20    1
    36     9    10   ar
    37    10    11   ar
    38    11    12    1
    39    12     2    1
    40    40    32    1
    41    11     6   ar
    42    39    35    1
    43    27    21   ar
    44    19    13   ar
    45    28    31    1
@<TRIPOS>MOLECULE
*****
 40 45 0 0 0
SMALL
GASTEIGER

@<TRIPOS>ATOM
      1 C         135.5962  139.5926  154.6184 C.3     1  UNL1        0.0437
      2 C         136.1547  140.9554  154.9027 C.3     1  UNL1        0.1368
      3 C         135.5538  141.1971  153.5496 C.3     1  UNL1        0.0437
      4 C         136.5045  142.4022  154.7170 C.3     1  UNL1        0.0643
      5 C         137.2611  143.1340  155.7856 C.3     1  UNL1        0.1023
      6 C         137.6680  142.4190  157.0399 C.ar    1  UNL1        0.0488
      7 C         138.4247  143.1508  158.1085 C.ar    1  UNL1        0.0034
      8 C         138.8316  142.4358  159.3627 C.ar    1  UNL1        0.0177
      9 C         138.4818  140.9890  159.5485 C.ar    1  UNL1        0.0851
     10 N         137.7251  140.2572  158.4799 N.ar    1  UNL1       -0.2119
     11 C         137.3182  140.9723  157.2255 C.ar    1  UNL1        0.2219
     12 O         136.5616  140.2405  156.1569 O.3     1  UNL1       -0.4676
     13 C         138.8887  140.2741  160.8027 C.ar    1  UNL1        0.0284
     14 C         137.9386  140.1908  161.9604 C.ar    1  UNL1        0.0032
     15 C         138.3455  139.4758  163.2148 C.ar    1  UNL1        0.0115
     16 C         139.7025  138.8441  163.3113 C.ar    1  UNL1        0.0585
     17 CL        140.1094  138.1291  164.5656 Cl      1  UNL1       -0.0822
     18 C         140.6527  138.9273  162.1536 C.ar    1  UNL1        0.0228
     19 C         140.2458  139.6423  160.8993 C.ar    1  UNL1        0.0599
     20 CL        141.1959  139.7255  159.7416 Cl      1  UNL1       -0.0822
     21 C         139.5883  143.1676  160.4313 C.ar    1  UNL1        0.0015
     22 C         138.8632  143.7049  161.6296 C.ar    1  UNL1        0.0009
     23 C         139.6199  144.4367  162.6982 C.ar    1  UNL1        0.0114
     24 C         141.1016  144.6312  162.5686 C.ar    1  UNL1        0.0577
     25 CL        141.8583  145.3630  163.6372 Cl      1  UNL1       -0.0822
     26 C         141.8266  144.0939  161.3704 C.ar    1  UNL1        0.0114
     27 C         141.0699  143.3621  160.3018 C.ar    1  UNL1        0.0009
     28 N         137.6109  144.5808  155.5999 N.am    1  UNL1       -0.2987
     29 C         138.9446  144.9627  155.0294 C.2     1  UNL1        0.2424
     30 O         139.9284  143.8979  154.6445 O.2     1  UNL1       -0.2705
     31 H         136.9652  145.2797  155.8525 H       1  UNL1        0.1500
     32 C         139.2943  146.4095  154.8436 C.2     1  UNL1        0.0357
     33 C         140.3186  146.8085  153.8230 C.2     1  UNL1        0.0021
     34 C         140.6684  148.2552  153.6372 C.2     1  UNL1        0.0205
     35 C         139.9940  149.3030  154.4721 C.2     1  UNL1        0.1007
     36 N         140.1322  150.7961  154.5132 N.2     1  UNL1       -0.1482
     37 N         139.1934  151.3199  155.5593 N.2     1  UNL1       -0.1467
     38 C         138.4750  150.1506  156.1647 C.2     1  UNL1        0.1197
     39 C         138.9697  148.9041  155.4928 C.2     1  UNL1        0.0227
     40 C         138.6199  147.4574  155.6786 C.3     1  UNL1        0.0604
@<TRIPOS>BOND
     1     1     2    1
     2     2     3    1
     3     2     4    1
     4     4     5    1
     5     5    28    1
     6    28    29   am
     7    29    30    2
     8    29    32    1
     9    32    33    2
    10    33    34    1
    11    34    35    2
    12    35    36    1
    13    36    37    2
    14    37    38    1
    15    38    39    2
    16    39    40    1
    17     5     6    1
    18     6     7   ar
    19     7     8   ar
    20     8    21    1
    21    21    22   ar
    22    22    23   ar
    23    23    24   ar
    24    24    25    1
    25    24    26   ar
    26    26    27   ar
    27     8     9   ar
    28     9    13    1
    29    13    14   ar
    30    14    15   ar
    31    15    16   ar
    32    16    17    1
    33    16    18   ar
    34    18    19   ar
    35    19    20    1
    36     9    10   ar
    37    10    11   ar
    38    11    12    1
    39    12     2    1
    40    40    32    1
    41    11     6   ar
    42    39    35    1
    43    27    21   ar
    44    19    13   ar
    45    28    31    1
@<TRIPOS>MOLECULE
*****
 40 45 0 0 0
SMALL
GASTEIGER

@<TRIPOS>ATOM
      1 C         142.3384  145.1256  155.6689 C.3     1  UNL1        0.0437
      2 C         142.3461  143.6630  156.0019 C.3     1  UNL1        0.1368
      3 C         142.9113  143.6170  154.6131 C.3     1  UNL1        0.0437
      4 C         142.5502  142.1845  155.8525 C.3     1  UNL1        0.0643
      5 C         142.1864  141.2599  156.9762 C.3     1  UNL1        0.1023
      6 C         141.6185  141.8138  158.2493 C.ar    1  UNL1        0.0488
      7 C         141.2547  140.8891  159.3730 C.ar    1  UNL1        0.0034
      8 C         140.6869  141.4430  160.6460 C.ar    1  UNL1        0.0177
      9 C         140.4828  142.9216  160.7954 C.ar    1  UNL1        0.0851
     10 N         140.8466  143.8462  159.6717 N.ar    1  UNL1       -0.2119
     11 C         141.4145  143.2923  158.3986 C.ar    1  UNL1        0.2219
     12 O         141.7783  144.2169  157.2749 O.3     1  UNL1       -0.4676
     13 C         139.9150  143.4755  162.0685 C.ar    1  UNL1        0.0284
     14 C         138.4287  143.5485  162.2575 C.ar    1  UNL1        0.0032
     15 C         137.8609  144.1024  163.5307 C.ar    1  UNL1        0.0115
     16 C         138.7793  144.5833  164.6147 C.ar    1  UNL1        0.0585
     17 CL        138.2115  145.1372  165.8878 Cl      1  UNL1       -0.0822
     18 C         140.2656  144.5103  164.4257 C.ar    1  UNL1        0.0228
     19 C         140.8334  143.9564  163.1526 C.ar    1  UNL1        0.0599
     20 CL        142.3196  143.8834  162.9636 Cl      1  UNL1       -0.0822
     21 C         140.3231  140.5184  161.7698 C.ar    1  UNL1        0.0015
     22 C         141.3116  140.2421  162.8636 C.ar    1  UNL1        0.0009
     23 C         140.9478  139.3175  163.9873 C.ar    1  UNL1        0.0114
     24 C         139.5955  138.6692  164.0172 C.ar    1  UNL1        0.0577
     25 CL        139.2317  137.7445  165.1409 Cl      1  UNL1       -0.0822
     26 C         138.6070  138.9454  162.9233 C.ar    1  UNL1        0.0114
     27 C         138.9708  139.8701  161.7996 C.ar    1  UNL1        0.0009
     28 N         142.3904  139.7813  156.8268 N.am    1  UNL1       -0.2987
     29 C         141.3080  138.9313  156.2305 C.2     1  UNL1        0.2424
     30 O         140.0214  139.5597  155.7836 O.2     1  UNL1       -0.2705
     31 H         143.2349  139.3688  157.1201 H       1  UNL1        0.1500
     32 C         141.5120  137.4527  156.0811 C.2     1  UNL1        0.0357
     33 C         140.7571  136.6938  155.0303 C.2     1  UNL1        0.0021
     34 C         140.9612  135.2153  154.8809 C.2     1  UNL1        0.0205
     35 C         141.9201  134.4957  155.7823 C.2     1  UNL1        0.1007
     36 N         142.3254  133.0542  155.8705 N.2     1  UNL1       -0.1482
     37 N         143.3308  132.9221  156.9758 N.2     1  UNL1       -0.1467
     38 C         143.5468  134.2820  157.5708 C.2     1  UNL1        0.1197
     39 C         142.6750  135.2546  156.8331 C.2     1  UNL1        0.0227
     40 C         142.4709  136.7330  156.9825 C.3     1  UNL1        0.0604
@<TRIPOS>BOND
     1     1     2    1
     2     2     3    1
     3     2     4    1
     4     4     5    1
     5     5    28    1
     6    28    29   am
     7    29    30    2
     8    29    32    1
     9    32    33    2
    10    33    34    1
    11    34    35    2
    12    35    36    1
    13    36    37    2
    14    37    38    1
    15    38    39    2
    16    39    40    1
    17     5     6    1
    18     6     7   ar
    19     7     8   ar
    20     8    21    1
    21    21    22   ar
    22    22    23   ar
    23    23    24   ar
    24    24    25    1
    25    24    26   ar
    26    26    27   ar
    27     8     9   ar
    28     9    13    1
    29    13    14   ar
    30    14    15   ar
    31    15    16   ar
    32    16    17    1
    33    16    18   ar
    34    18    19   ar
    35    19    20    1
    36     9    10   ar
    37    10    11   ar
    38    11    12    1
    39    12     2    1
    40    40    32    1
    41    11     6   ar
    42    39    35    1
    43    27    21   ar
    44    19    13   ar
    45    28    31    1
@<TRIPOS>MOLECULE
*****
 40 45 0 0 0
SMALL
GASTEIGER

@<TRIPOS>ATOM
      1 C         145.6144  139.5181  155.3389 C.3     1  UNL1        0.0437
      2 C         144.8508  140.7702  155.6540 C.3     1  UNL1        0.1368
      3 C         145.1457  141.0034  154.2019 C.3     1  UNL1        0.0437
      4 C         144.1897  142.1032  155.4648 C.3     1  UNL1        0.0643
      5 C         143.4989  142.7682  156.6183 C.3     1  UNL1        0.1023
      6 C         143.4692  142.1002  157.9610 C.ar    1  UNL1        0.0488
      7 C         142.7784  142.7653  159.1145 C.ar    1  UNL1        0.0034
      8 C         142.7487  142.0972  160.4571 C.ar    1  UNL1        0.0177
      9 C         143.4098  140.7641  160.6464 C.ar    1  UNL1        0.0851
     10 N         144.1007  140.0991  159.4929 N.ar    1  UNL1       -0.2119
     11 C         144.1303  140.7672  158.1502 C.ar    1  UNL1        0.2219
     12 O         144.8212  140.1022  156.9967 O.3     1  UNL1       -0.4676
     13 C         143.3802  140.0961  161.9891 C.ar    1  UNL1        0.0284
     14 C         142.3357  139.0622  162.2895 C.ar    1  UNL1        0.0032
     15 C         142.3061  138.3942  163.6322 C.ar    1  UNL1        0.0115
     16 C         143.3208  138.7601  164.6745 C.ar    1  UNL1        0.0585
     17 CL        143.2912  138.0920  166.0172 Cl      1  UNL1       -0.0822
     18 C         144.3653  139.7939  164.3741 C.ar    1  UNL1        0.0228
     19 C         144.3949  140.4620  163.0314 C.ar    1  UNL1        0.0599
     20 CL        145.4394  141.4958  162.7310 Cl      1  UNL1       -0.0822
     21 C         142.0579  142.7623  161.6106 C.ar    1  UNL1        0.0015
     22 C         140.6504  142.3813  161.9626 C.ar    1  UNL1        0.0009
     23 C         139.9595  143.0463  163.1161 C.ar    1  UNL1        0.0114
     24 C         140.6762  144.0923  163.9176 C.ar    1  UNL1        0.0577
     25 CL        139.9854  144.7573  165.0710 Cl      1  UNL1       -0.0822
     26 C         142.0836  144.4733  163.5655 C.ar    1  UNL1        0.0114
     27 C         142.7745  143.8082  162.4121 C.ar    1  UNL1        0.0009
     28 N         142.8377  144.1014  156.4291 N.am    1  UNL1       -0.2987
     29 C         141.4346  144.1748  155.9040 C.2     1  UNL1        0.2424
     30 O         140.6925  142.9152  155.5682 O.2     1  UNL1       -0.2705
     31 H         143.3247  144.9281  156.6495 H       1  UNL1        0.1500
     32 C         140.7734  145.5080  155.7148 C.2     1  UNL1        0.0357
     33 C         139.8743  146.0575  156.7823 C.2     1  UNL1        0.0021
     34 C         139.2132  147.3905  156.5931 C.2     1  UNL1        0.0205
     35 C         139.4511  148.1740  155.3364 C.2     1  UNL1        0.1007
     36 N         138.9409  149.5061  154.8722 N.2     1  UNL1       -0.1482
     37 N         139.5246  149.7798  153.5179 N.2     1  UNL1       -0.1467
     38 C         140.3956  148.6169  153.1449 C.2     1  UNL1        0.1197
     39 C         140.3502  147.6245  154.2688 C.2     1  UNL1        0.0227
     40 C         141.0113  146.2914  154.4580 C.3     1  UNL1        0.0604
@<TRIPOS>BOND
     1     1     2    1
     2     2     3    1
     3     2     4    1
     4     4     5    1
     5     5    28    1
     6    28    29   am
     7    29    30    2
     8    29    32    1
     9    32    33    2
    10    33    34    1
    11    34    35    2
    12    35    36    1
    13    36    37    2
    14    37    38    1
    15    38    39    2
    16    39    40    1
    17     5     6    1
    18     6     7   ar
    19     7     8   ar
    20     8    21    1
    21    21    22   ar
    22    22    23   ar
    23    23    24   ar
    24    24    25    1
    25    24    26   ar
    26    26    27   ar
    27     8     9   ar
    28     9    13    1
    29    13    14   ar
    30    14    15   ar
    31    15    16   ar
    32    16    17    1
    33    16    18   ar
    34    18    19   ar
    35    19    20    1
    36     9    10   ar
    37    10    11   ar
    38    11    12    1
    39    12     2    1
    40    40    32    1
    41    11     6   ar
    42    39    35    1
    43    27    21   ar
    44    19    13   ar
    45    28    31    1
@<TRIPOS>MOLECULE
*****
 40 45 0 0 0
SMALL
GASTEIGER

@<TRIPOS>ATOM
      1 C         139.8396  143.8178  152.9598 C.3     1  UNL1        0.0437
      2 C         138.6973  143.3619  153.8185 C.3     1  UNL1        0.1368
      3 C         137.9943  143.4977  152.5003 C.3     1  UNL1        0.0437
      4 C         137.3109  142.9532  154.2194 C.3     1  UNL1        0.0643
      5 C         137.0241  142.5670  155.6401 C.3     1  UNL1        0.1023
      6 C         138.1237  142.5896  156.6601 C.ar    1  UNL1        0.0488
      7 C         137.8369  142.2034  158.0808 C.ar    1  UNL1        0.0034
      8 C         138.9365  142.2260  159.1008 C.ar    1  UNL1        0.0177
      9 C         140.3230  142.6347  158.6999 C.ar    1  UNL1        0.0851
     10 N         140.6098  143.0209  157.2791 N.ar    1  UNL1       -0.2119
     11 C         139.5101  142.9983  156.2592 C.ar    1  UNL1        0.2219
     12 O         139.7969  143.3845  154.8384 O.3     1  UNL1       -0.4676
     13 C         141.4226  142.6573  159.7198 C.ar    1  UNL1        0.0284
     14 C         142.2638  141.4355  159.9430 C.ar    1  UNL1        0.0032
     15 C         143.3634  141.4581  160.9630 C.ar    1  UNL1        0.0115
     16 C         143.6219  142.7025  161.7597 C.ar    1  UNL1        0.0585
     17 CL        144.7215  142.7250  162.7797 Cl      1  UNL1       -0.0822
     18 C         142.7808  143.9242  161.5365 C.ar    1  UNL1        0.0228
     19 C         141.6812  143.9017  160.5166 C.ar    1  UNL1        0.0599
     20 CL        140.8401  145.1234  160.2934 Cl      1  UNL1       -0.0822
     21 C         138.6497  141.8398  160.5215 C.ar    1  UNL1        0.0015
     22 C         138.8044  140.4126  160.9566 C.ar    1  UNL1        0.0009
     23 C         138.5176  140.0264  162.3774 C.ar    1  UNL1        0.0114
     24 C         138.0761  141.0674  163.3631 C.ar    1  UNL1        0.0577
     25 CL        137.7893  140.6812  164.7839 Cl      1  UNL1       -0.0822
     26 C         137.9215  142.4945  162.9280 C.ar    1  UNL1        0.0114
     27 C         138.2083  142.8807  161.5072 C.ar    1  UNL1        0.0009
     28 N         135.6376  142.1582  156.0410 N.am    1  UNL1       -0.2987
     29 C         135.2194  140.7216  155.9361 C.2     1  UNL1        0.2424
     30 O         136.1876  139.6936  155.4305 O.2     1  UNL1       -0.2705
     31 H         135.0020  142.8329  156.3729 H       1  UNL1        0.1500
     32 C         133.8329  140.3128  156.3370 C.2     1  UNL1        0.0357
     33 C         133.6345  139.1971  157.3197 C.2     1  UNL1        0.0021
     34 C         132.2481  138.7883  157.7206 C.2     1  UNL1        0.0205
     35 C         131.0601  139.4953  157.1387 C.2     1  UNL1        0.1007
     36 N         129.5851  139.3142  157.3429 N.2     1  UNL1       -0.1482
     37 N         128.8718  140.3181  156.4864 N.2     1  UNL1       -0.1467
     38 C         129.9060  141.1195  155.7528 C.2     1  UNL1        0.1197
     39 C         131.2584  140.6110  156.1559 C.2     1  UNL1        0.0227
     40 C         132.6448  141.0198  155.7551 C.3     1  UNL1        0.0604
@<TRIPOS>BOND
     1     1     2    1
     2     2     3    1
     3     2     4    1
     4     4     5    1
     5     5    28    1
     6    28    29   am
     7    29    30    2
     8    29    32    1
     9    32    33    2
    10    33    34    1
    11    34    35    2
    12    35    36    1
    13    36    37    2
    14    37    38    1
    15    38    39    2
    16    39    40    1
    17     5     6    1
    18     6     7   ar
    19     7     8   ar
    20     8    21    1
    21    21    22   ar
    22    22    23   ar
    23    23    24   ar
    24    24    25    1
    25    24    26   ar
    26    26    27   ar
    27     8     9   ar
    28     9    13    1
    29    13    14   ar
    30    14    15   ar
    31    15    16   ar
    32    16    17    1
    33    16    18   ar
    34    18    19   ar
    35    19    20    1
    36     9    10   ar
    37    10    11   ar
    38    11    12    1
    39    12     2    1
    40    40    32    1
    41    11     6   ar
    42    39    35    1
    43    27    21   ar
    44    19    13   ar
    45    28    31    1
@<TRIPOS>MOLECULE
*****
 40 45 0 0 0
SMALL
GASTEIGER

@<TRIPOS>ATOM
      1 C         143.8977  134.8815  156.3106 C.3     1  UNL1        0.0437
      2 C         142.9001  135.9924  156.1656 C.3     1  UNL1        0.1368
      3 C         142.9647  135.5133  154.7456 C.3     1  UNL1        0.0437
      4 C         141.9251  136.9368  155.5275 C.3     1  UNL1        0.0643
      5 C         141.2319  137.9746  156.3596 C.3     1  UNL1        0.1023
      6 C         141.5137  138.0679  157.8299 C.ar    1  UNL1        0.0488
      7 C         140.8205  139.1056  158.6621 C.ar    1  UNL1        0.0034
      8 C         141.1023  139.1990  160.1324 C.ar    1  UNL1        0.0177
      9 C         142.0774  138.2545  160.7706 C.ar    1  UNL1        0.0851
     10 N         142.7706  137.2167  159.9384 N.ar    1  UNL1       -0.2119
     11 C         142.4887  137.1235  158.4681 C.ar    1  UNL1        0.2219
     12 O         143.1820  136.0857  157.6359 O.3     1  UNL1       -0.4676
     13 C         142.3592  138.3478  162.2409 C.ar    1  UNL1        0.0284
     14 C         141.4909  137.6135  163.2191 C.ar    1  UNL1        0.0032
     15 C         141.7727  137.7069  164.6895 C.ar    1  UNL1        0.0115
     16 C         142.9229  138.5344  165.1816 C.ar    1  UNL1        0.0585
     17 CL        143.2047  138.6277  166.6519 Cl      1  UNL1       -0.0822
     18 C         143.7912  139.2687  164.2034 C.ar    1  UNL1        0.0228
     19 C         143.5094  139.1754  162.7331 C.ar    1  UNL1        0.0599
     20 CL        144.3777  139.9097  161.7549 Cl      1  UNL1       -0.0822
     21 C         140.4090  140.2367  160.9646 C.ar    1  UNL1        0.0015
     22 C         141.0629  141.5653  161.2043 C.ar    1  UNL1        0.0009
     23 C         140.3696  142.6031  162.0365 C.ar    1  UNL1        0.0114
     24 C         139.0226  142.3122  162.6289 C.ar    1  UNL1        0.0577
     25 CL        138.3293  143.3500  163.4611 Cl      1  UNL1       -0.0822
     26 C         138.3688  140.9837  162.3892 C.ar    1  UNL1        0.0114
     27 C         139.0621  139.9459  161.5570 C.ar    1  UNL1        0.0009
     28 N         140.2568  138.9191  155.7214 N.am    1  UNL1       -0.2987
     29 C         138.8711  138.4530  155.3860 C.2     1  UNL1        0.2424
     30 O         138.4604  137.0424  155.6887 O.2     1  UNL1       -0.2705
     31 H         140.5263  139.8449  155.5227 H       1  UNL1        0.1500
     32 C         137.8960  139.3974  154.7477 C.2     1  UNL1        0.0357
     33 C         136.5046  138.9366  154.4288 C.2     1  UNL1        0.0021
     34 C         135.5296  139.8810  153.7906 C.2     1  UNL1        0.0205
     35 C         135.9459  141.2862  153.4714 C.2     1  UNL1        0.1007
     36 N         135.2091  142.4340  152.8471 N.2     1  UNL1       -0.1482
     37 N         136.1451  143.6043  152.7802 N.2     1  UNL1       -0.1467
     38 C         137.4603  143.1797  153.3632 C.2     1  UNL1        0.1197
     39 C         137.3372  141.7471  153.7903 C.2     1  UNL1        0.0227
     40 C         138.3123  140.8027  154.4285 C.3     1  UNL1        0.0604
@<TRIPOS>BOND
     1     1     2    1
     2     2     3    1
     3     2     4    1
     4     4     5    1
     5     5    28    1
     6    28    29   am
     7    29    30    2
     8    29    32    1
     9    32    33    2
    10    33    34    1
    11    34    35    2
    12    35    36    1
    13    36    37    2
    14    37    38    1
    15    38    39    2
    16    39    40    1
    17     5     6    1
    18     6     7   ar
    19     7     8   ar
    20     8    21    1
    21    21    22   ar
    22    22    23   ar
    23    23    24   ar
    24    24    25    1
    25    24    26   ar
    26    26    27   ar
    27     8     9   ar
    28     9    13    1
    29    13    14   ar
    30    14    15   ar
    31    15    16   ar
    32    16    17    1
    33    16    18   ar
    34    18    19   ar
    35    19    20    1
    36     9    10   ar
    37    10    11   ar
    38    11    12    1
    39    12     2    1
    40    40    32    1
    41    11     6   ar
    42    39    35    1
    43    27    21   ar
    44    19    13   ar
    45    28    31    1
