@<TRIPOS>MOLECULE
*****
 35 37 0 0 0
SMALL
GASTEIGER

@<TRIPOS>ATOM
      1 C         138.9036  141.7390  163.6961 C.2     1  UNL1        0.2273
      2 O         139.7967  141.7331  164.9013 O.2     1  UNL1       -0.2748
      3 N         138.5763  140.4519  162.9989 N.am    1  UNL1       -0.2730
      4 C         137.7025  140.3021  161.7889 C.3     1  UNL1        0.0939
      5 C         137.6514  138.8462  161.4314 C.3     1  UNL1        0.0237
      6 C         138.4936  138.0963  162.4204 C.3     1  UNL1        0.0310
      7 C         139.0652  139.0886  163.3892 C.3     1  UNL1        0.1518
      8 C         139.9674  138.7731  164.5453 C.2     1  UNL1        0.2408
      9 O         139.3999  138.1732  165.7975 O.2     1  UNL1       -0.2733
     10 N         141.4371  139.0575  164.4491 N.am    1  UNL1       -0.2991
     11 H         141.8095  139.4512  163.6272 H       1  UNL1        0.1498
     12 C         142.3392  138.7420  165.6052 C.3     1  UNL1        0.1164
     13 C         142.5590  139.7600  166.6847 C.ar    1  UNL1       -0.0026
     14 C         142.4940  139.3506  168.1262 C.ar    1  UNL1       -0.0027
     15 C         142.7137  140.3686  169.2057 C.ar    1  UNL1        0.0036
     16 C         142.9984  141.7962  168.8436 C.ar    1  UNL1        0.0714
     17 C         143.0635  142.2056  167.4020 C.ar    1  UNL1        0.0036
     18 C         142.8437  141.1876  166.3226 C.ar    1  UNL1       -0.0027
     19 C         143.2182  142.8142  169.9231 C.3     1  UNL1        0.4186
     20 F         143.4379  143.8323  171.0026 F       1  UNL1       -0.1659
     21 F         144.6759  142.4624  169.9582 F       1  UNL1       -0.1659
     22 F         141.7605  143.1661  169.8880 F       1  UNL1       -0.1659
     23 C         138.3379  143.0322  163.1883 C.3     1  UNL1        0.1010
     24 N         138.3772  144.7661  165.1227 N.3     1  UNL1       -0.3215
     25 C         138.8183  144.3350  163.7554 C.3     1  UNL1        0.0644
     26 H         137.7583  144.0588  165.5190 H       1  UNL1        0.1188
     27 H         137.8797  145.6540  165.0553 H       1  UNL1        0.1188
     28 C         139.7399  145.2069  162.9551 C.3     1  UNL1        0.0446
     29 C         141.1959  144.8619  162.8500 C.ar    1  UNL1        0.0066
     30 C         142.1672  145.3915  163.8630 C.ar    1  UNL1       -0.0020
     31 C         143.6232  145.0463  163.7579 C.ar    1  UNL1       -0.0002
     32 C         144.1079  144.1716  162.6399 C.ar    1  UNL1        0.0023
     33 C         143.1365  143.6420  161.6269 C.ar    1  UNL1        0.0293
     34 C         141.6806  143.9871  161.7320 C.ar    1  UNL1        0.1362
     35 F         140.7093  143.4575  160.7191 F       1  UNL1       -0.2045
@<TRIPOS>BOND
     1    24    25    1
     2    25    23    1
     3    23     1    1
     4     1     2    2
     5     1     3   am
     6     3     4    1
     7     4     5    1
     8     5     6    1
     9     6     7    1
    10     7     8    1
    11     8     9    2
    12     8    10   am
    13    10    12    1
    14    12    13    1
    15    13    14   ar
    16    14    15   ar
    17    15    16   ar
    18    16    19    1
    19    19    20    1
    20    19    21    1
    21    19    22    1
    22    16    17   ar
    23    17    18   ar
    24    25    28    1
    25    28    29    1
    26    29    30   ar
    27    30    31   ar
    28    31    32   ar
    29    32    33   ar
    30    33    34   ar
    31    34    35    1
    32     7     3    1
    33    18    13   ar
    34    34    29   ar
    35    24    26    1
    36    24    27    1
    37    10    11    1
@<TRIPOS>MOLECULE
*****
 35 37 0 0 0
SMALL
GASTEIGER

@<TRIPOS>ATOM
      1 C         141.3125  144.0347  163.0179 C.2     1  UNL1        0.2273
      2 O         140.6086  143.4356  164.1993 O.2     1  UNL1       -0.2748
      3 N         140.7674  143.8277  161.6359 N.am    1  UNL1       -0.2730
      4 C         141.3592  144.3624  160.3655 C.3     1  UNL1        0.0939
      5 C         140.4924  143.9149  159.2260 C.3     1  UNL1        0.0237
      6 C         139.3649  143.1036  159.7922 C.3     1  UNL1        0.0310
      7 C         139.5349  143.0498  161.2816 C.3     1  UNL1        0.1518
      8 C         138.6310  142.3422  162.2471 C.2     1  UNL1        0.2408
      9 O         137.3028  142.9394  162.6065 O.2     1  UNL1       -0.2733
     10 N         139.0553  141.0374  162.8533 N.am    1  UNL1       -0.2991
     11 H         139.9271  140.6454  162.6175 H       1  UNL1        0.1498
     12 C         138.1515  140.3298  163.8189 C.3     1  UNL1        0.1164
     13 C         138.5294  140.2336  165.2674 C.ar    1  UNL1       -0.0026
     14 C         139.4825  141.2278  165.8614 C.ar    1  UNL1       -0.0027
     15 C         139.8604  141.1316  167.3098 C.ar    1  UNL1        0.0036
     16 C         139.2851  140.0411  168.1642 C.ar    1  UNL1        0.0714
     17 C         138.3320  139.0469  167.5701 C.ar    1  UNL1        0.0036
     18 C         137.9541  139.1431  166.1217 C.ar    1  UNL1       -0.0027
     19 C         139.6630  139.9449  169.6126 C.3     1  UNL1        0.4186
     20 F         140.0409  139.8488  171.0610 F       1  UNL1       -0.1659
     21 F         141.0956  139.7283  169.2245 F       1  UNL1       -0.1659
     22 F         138.2304  140.1616  170.0007 F       1  UNL1       -0.1659
     23 C         142.5615  144.8408  163.2187 C.3     1  UNL1        0.1010
     24 N         144.7677  144.0902  162.0700 N.3     1  UNL1       -0.3215
     25 C         143.8938  144.1550  163.2874 C.3     1  UNL1        0.0644
     26 H         144.3030  144.5593  161.2926 H       1  UNL1        0.1188
     27 H         144.9384  143.1148  161.8256 H       1  UNL1        0.1188
     28 C         144.3521  143.5339  164.5736 C.3     1  UNL1        0.0446
     29 C         144.2327  142.0524  164.7755 C.ar    1  UNL1        0.0066
     30 C         143.1457  141.4997  165.6490 C.ar    1  UNL1       -0.0020
     31 C         143.0264  140.0181  165.8508 C.ar    1  UNL1       -0.0002
     32 C         143.9939  139.0892  165.1791 C.ar    1  UNL1        0.0023
     33 C         145.0809  139.6420  164.3056 C.ar    1  UNL1        0.0293
     34 C         145.2002  141.1236  164.1038 C.ar    1  UNL1        0.1362
     35 F         146.2871  141.6763  163.2302 F       1  UNL1       -0.2045
@<TRIPOS>BOND
     1    24    25    1
     2    25    23    1
     3    23     1    1
     4     1     2    2
     5     1     3   am
     6     3     4    1
     7     4     5    1
     8     5     6    1
     9     6     7    1
    10     7     8    1
    11     8     9    2
    12     8    10   am
    13    10    12    1
    14    12    13    1
    15    13    14   ar
    16    14    15   ar
    17    15    16   ar
    18    16    19    1
    19    19    20    1
    20    19    21    1
    21    19    22    1
    22    16    17   ar
    23    17    18   ar
    24    25    28    1
    25    28    29    1
    26    29    30   ar
    27    30    31   ar
    28    31    32   ar
    29    32    33   ar
    30    33    34   ar
    31    34    35    1
    32     7     3    1
    33    18    13   ar
    34    34    29   ar
    35    24    26    1
    36    24    27    1
    37    10    11    1
@<TRIPOS>MOLECULE
*****
 35 37 0 0 0
SMALL
GASTEIGER

@<TRIPOS>ATOM
      1 C         138.3797  142.0391  163.5136 C.2     1  UNL1        0.2273
      2 O         138.8640  142.0167  164.9331 O.2     1  UNL1       -0.2748
      3 N         138.1774  140.7523  162.7698 N.am    1  UNL1       -0.2730
      4 C         137.7006  140.6180  161.3540 C.3     1  UNL1        0.0939
      5 C         137.6449  139.1566  161.0203 C.3     1  UNL1        0.0237
      6 C         138.0873  138.3878  162.2300 C.3     1  UNL1        0.0310
      7 C         138.4164  139.3740  163.3112 C.3     1  UNL1        0.1518
      8 C         138.8997  139.0405  164.6915 C.2     1  UNL1        0.2408
      9 O         140.1669  138.2589  164.8740 O.2     1  UNL1       -0.2733
     10 N         138.1158  139.4887  165.8893 N.am    1  UNL1       -0.2991
     11 H         137.2841  140.0017  165.7695 H       1  UNL1        0.1498
     12 C         138.5991  139.1552  167.2696 C.3     1  UNL1        0.1164
     13 C         139.5288  140.0900  167.9850 C.ar    1  UNL1       -0.0026
     14 C         139.2367  140.5032  169.3971 C.ar    1  UNL1       -0.0027
     15 C         140.1664  141.4380  170.1125 C.ar    1  UNL1        0.0036
     16 C         141.3881  141.9596  169.4158 C.ar    1  UNL1        0.0714
     17 C         141.6801  141.5465  168.0037 C.ar    1  UNL1        0.0036
     18 C         140.7505  140.6116  167.2884 C.ar    1  UNL1       -0.0027
     19 C         142.3178  142.8945  170.1312 C.3     1  UNL1        0.4186
     20 F         143.2474  143.8293  170.8466 F       1  UNL1       -0.1659
     21 F         143.3337  141.7969  170.2454 F       1  UNL1       -0.1659
     22 F         141.3018  143.9921  170.0171 F       1  UNL1       -0.1659
     23 C         138.0977  143.3484  162.8380 C.3     1  UNL1        0.1010
     24 N         139.0465  145.6283  162.0308 N.3     1  UNL1       -0.3215
     25 C         139.2261  144.1589  162.2726 C.3     1  UNL1        0.0644
     26 H         138.1039  145.9053  162.3051 H       1  UNL1        0.1188
     27 H         139.1853  145.8294  161.0405 H       1  UNL1        0.1188
     28 C         140.5341  143.4999  161.9489 C.3     1  UNL1        0.0446
     29 C         141.6893  143.6194  162.8982 C.ar    1  UNL1        0.0066
     30 C         142.3800  144.9389  163.0768 C.ar    1  UNL1       -0.0020
     31 C         143.5352  145.0583  164.0262 C.ar    1  UNL1       -0.0002
     32 C         143.9997  143.8582  164.7970 C.ar    1  UNL1        0.0023
     33 C         143.3090  142.5387  164.6184 C.ar    1  UNL1        0.0293
     34 C         142.1538  142.4194  163.6690 C.ar    1  UNL1        0.1362
     35 F         141.4632  141.0998  163.4905 F       1  UNL1       -0.2045
@<TRIPOS>BOND
     1    24    25    1
     2    25    23    1
     3    23     1    1
     4     1     2    2
     5     1     3   am
     6     3     4    1
     7     4     5    1
     8     5     6    1
     9     6     7    1
    10     7     8    1
    11     8     9    2
    12     8    10   am
    13    10    12    1
    14    12    13    1
    15    13    14   ar
    16    14    15   ar
    17    15    16   ar
    18    16    19    1
    19    19    20    1
    20    19    21    1
    21    19    22    1
    22    16    17   ar
    23    17    18   ar
    24    25    28    1
    25    28    29    1
    26    29    30   ar
    27    30    31   ar
    28    31    32   ar
    29    32    33   ar
    30    33    34   ar
    31    34    35    1
    32     7     3    1
    33    18    13   ar
    34    34    29   ar
    35    24    26    1
    36    24    27    1
    37    10    11    1
@<TRIPOS>MOLECULE
*****
 35 37 0 0 0
SMALL
GASTEIGER

@<TRIPOS>ATOM
      1 C         140.2970  139.4440  163.3403 C.2     1  UNL1        0.2273
      2 O         140.5024  140.2025  164.6180 O.2     1  UNL1       -0.2748
      3 N         141.4781  138.8974  162.5945 N.am    1  UNL1       -0.2730
      4 C         141.4288  138.1229  161.3109 C.3     1  UNL1        0.0939
      5 C         142.8361  137.7761  160.9244 C.3     1  UNL1        0.0237
      6 C         143.7551  138.3364  161.9691 C.3     1  UNL1        0.0310
      7 C         142.9158  139.0294  163.0013 C.3     1  UNL1        0.1518
      8 C         143.4249  139.7311  164.2254 C.2     1  UNL1        0.2408
      9 O         144.1083  138.9497  165.3082 O.2     1  UNL1       -0.2733
     10 N         143.2506  141.2143  164.3667 N.am    1  UNL1       -0.2991
     11 H         142.8021  141.7271  163.6561 H       1  UNL1        0.1498
     12 C         143.7596  141.9160  165.5908 C.3     1  UNL1        0.1164
     13 C         142.8234  142.2274  166.7207 C.ar    1  UNL1       -0.0026
     14 C         143.3243  142.2159  168.1346 C.ar    1  UNL1       -0.0027
     15 C         142.3881  142.5274  169.2644 C.ar    1  UNL1        0.0036
     16 C         140.9510  142.8502  168.9803 C.ar    1  UNL1        0.0714
     17 C         140.4502  142.8617  167.5665 C.ar    1  UNL1        0.0036
     18 C         141.3864  142.5502  166.4367 C.ar    1  UNL1       -0.0027
     19 C         140.0148  143.1616  170.1102 C.3     1  UNL1        0.4186
     20 F         139.0787  143.4731  171.2401 F       1  UNL1       -0.1659
     21 F         139.5796  141.7266  170.1452 F       1  UNL1       -0.1659
     22 F         140.4500  144.5966  170.0753 F       1  UNL1       -0.1659
     23 C         138.9105  139.2322  162.8085 C.3     1  UNL1        0.1010
     24 N         136.9477  140.0002  161.2895 N.3     1  UNL1       -0.3215
     25 C         138.2800  140.2672  161.9246 C.3     1  UNL1        0.0644
     26 H         136.6192  139.0746  161.5647 H       1  UNL1        0.1188
     27 H         137.0407  140.0400  160.2745 H       1  UNL1        0.1188
     28 C         138.9820  141.5693  161.6760 C.3     1  UNL1        0.0446
     29 C         138.9412  142.6531  162.7122 C.ar    1  UNL1        0.0066
     30 C         137.7894  142.7323  163.6698 C.ar    1  UNL1       -0.0020
     31 C         137.7487  143.8163  164.7059 C.ar    1  UNL1       -0.0002
     32 C         138.8598  144.8209  164.7845 C.ar    1  UNL1        0.0023
     33 C         140.0117  144.7416  163.8269 C.ar    1  UNL1        0.0293
     34 C         140.0523  143.6577  162.7907 C.ar    1  UNL1        0.1362
     35 F         141.2042  143.5785  161.8331 F       1  UNL1       -0.2045
@<TRIPOS>BOND
     1    24    25    1
     2    25    23    1
     3    23     1    1
     4     1     2    2
     5     1     3   am
     6     3     4    1
     7     4     5    1
     8     5     6    1
     9     6     7    1
    10     7     8    1
    11     8     9    2
    12     8    10   am
    13    10    12    1
    14    12    13    1
    15    13    14   ar
    16    14    15   ar
    17    15    16   ar
    18    16    19    1
    19    19    20    1
    20    19    21    1
    21    19    22    1
    22    16    17   ar
    23    17    18   ar
    24    25    28    1
    25    28    29    1
    26    29    30   ar
    27    30    31   ar
    28    31    32   ar
    29    32    33   ar
    30    33    34   ar
    31    34    35    1
    32     7     3    1
    33    18    13   ar
    34    34    29   ar
    35    24    26    1
    36    24    27    1
    37    10    11    1
@<TRIPOS>MOLECULE
*****
 35 37 0 0 0
SMALL
GASTEIGER

@<TRIPOS>ATOM
      1 C         140.8738  141.1445  161.8348 C.2     1  UNL1        0.2273
      2 O         141.2842  141.6999  163.1663 O.2     1  UNL1       -0.2748
      3 N         141.5605  139.9295  161.2851 N.am    1  UNL1       -0.2730
      4 C         141.2599  139.2639  159.9749 C.3     1  UNL1        0.0939
      5 C         142.1820  138.0898  159.8290 C.3     1  UNL1        0.0237
      6 C         143.0525  138.0298  161.0492 C.3     1  UNL1        0.0310
      7 C         142.6683  139.1667  161.9490 C.3     1  UNL1        0.1518
      8 C         143.2840  139.4851  163.2793 C.2     1  UNL1        0.2408
      9 O         144.6675  140.0607  163.3470 O.2     1  UNL1       -0.2733
     10 N         142.5161  139.2277  164.5420 N.am    1  UNL1       -0.2991
     11 H         141.6081  138.8499  164.4976 H       1  UNL1        0.1498
     12 C         143.1318  139.5461  165.8722 C.3     1  UNL1        0.1164
     13 C         142.3449  140.3027  166.9010 C.ar    1  UNL1       -0.0026
     14 C         141.8453  141.6839  166.5966 C.ar    1  UNL1       -0.0027
     15 C         141.0585  142.4405  167.6254 C.ar    1  UNL1        0.0036
     16 C         140.7713  141.8159  168.9586 C.ar    1  UNL1        0.0714
     17 C         141.2709  140.4347  169.2630 C.ar    1  UNL1        0.0036
     18 C         142.0577  139.6781  168.2342 C.ar    1  UNL1       -0.0027
     19 C         139.9844  142.5726  169.9874 C.3     1  UNL1        0.4186
     20 F         139.1977  143.3293  171.0161 F       1  UNL1       -0.1659
     21 F         139.0749  141.3924  170.1599 F       1  UNL1       -0.1659
     22 F         140.8940  143.7528  169.8149 F       1  UNL1       -0.1659
     23 C         139.7765  141.8040  161.0531 C.3     1  UNL1        0.1010
     24 N         137.6551  143.1609  161.6922 N.3     1  UNL1       -0.3215
     25 C         138.3843  141.8527  161.6091 C.3     1  UNL1        0.0644
     26 H         138.2506  143.9056  161.3302 H       1  UNL1        0.1188
     27 H         137.4186  143.3571  162.6649 H       1  UNL1        0.1188
     28 C         137.7212  140.5930  162.0821 C.3     1  UNL1        0.0446
     29 C         138.1862  139.9291  163.3442 C.ar    1  UNL1        0.0066
     30 C         138.1306  140.6713  164.6465 C.ar    1  UNL1       -0.0020
     31 C         138.5956  140.0072  165.9086 C.ar    1  UNL1       -0.0002
     32 C         139.1161  138.6010  165.8684 C.ar    1  UNL1        0.0023
     33 C         139.1717  137.8588  164.5660 C.ar    1  UNL1        0.0293
     34 C         138.7067  138.5229  163.3040 C.ar    1  UNL1        0.1362
     35 F         138.7623  137.7807  162.0017 F       1  UNL1       -0.2045
@<TRIPOS>BOND
     1    24    25    1
     2    25    23    1
     3    23     1    1
     4     1     2    2
     5     1     3   am
     6     3     4    1
     7     4     5    1
     8     5     6    1
     9     6     7    1
    10     7     8    1
    11     8     9    2
    12     8    10   am
    13    10    12    1
    14    12    13    1
    15    13    14   ar
    16    14    15   ar
    17    15    16   ar
    18    16    19    1
    19    19    20    1
    20    19    21    1
    21    19    22    1
    22    16    17   ar
    23    17    18   ar
    24    25    28    1
    25    28    29    1
    26    29    30   ar
    27    30    31   ar
    28    31    32   ar
    29    32    33   ar
    30    33    34   ar
    31    34    35    1
    32     7     3    1
    33    18    13   ar
    34    34    29   ar
    35    24    26    1
    36    24    27    1
    37    10    11    1
@<TRIPOS>MOLECULE
*****
 35 37 0 0 0
SMALL
GASTEIGER

@<TRIPOS>ATOM
      1 C         142.5802  142.7733  161.6920 C.2     1  UNL1        0.2273
      2 O         141.9060  142.6869  163.0291 O.2     1  UNL1       -0.2748
      3 N         141.7576  142.8998  160.4441 N.am    1  UNL1       -0.2730
      4 C         142.2882  142.9958  159.0444 C.3     1  UNL1        0.0939
      5 C         141.1185  143.1079  158.1119 C.3     1  UNL1        0.0237
      6 C         139.8651  143.0812  158.9354 C.3     1  UNL1        0.0310
      7 C         140.2600  142.9526  160.3768 C.3     1  UNL1        0.1518
      8 C         139.3222  142.8880  161.5456 C.2     1  UNL1        0.2408
      9 O         138.5791  144.1166  161.9796 O.2     1  UNL1       -0.2733
     10 N         139.1273  141.5949  162.2804 N.am    1  UNL1       -0.2991
     11 H         139.6151  140.7885  161.9955 H       1  UNL1        0.1498
     12 C         138.1895  141.5304  163.4492 C.3     1  UNL1        0.1164
     13 C         138.7014  141.1269  164.8002 C.ar    1  UNL1       -0.0026
     14 C         138.2010  139.8694  165.4470 C.ar    1  UNL1       -0.0027
     15 C         138.7129  139.4660  166.7980 C.ar    1  UNL1        0.0036
     16 C         139.7252  140.3201  167.5022 C.ar    1  UNL1        0.0714
     17 C         140.2255  141.5775  166.8554 C.ar    1  UNL1        0.0036
     18 C         139.7136  141.9810  165.5044 C.ar    1  UNL1       -0.0027
     19 C         140.2371  139.9166  168.8532 C.3     1  UNL1        0.4186
     20 F         140.7490  139.5131  170.2042 F       1  UNL1       -0.1659
     21 F         138.8688  140.1209  169.4328 F       1  UNL1       -0.1659
     22 F         141.6054  139.7123  168.2737 F       1  UNL1       -0.1659
     23 C         144.0770  142.7332  161.6029 C.3     1  UNL1        0.1010
     24 N         146.0491  141.9064  163.0784 N.3     1  UNL1       -0.3215
     25 C         144.8368  141.6111  162.2459 C.3     1  UNL1        0.0644
     26 H         146.2102  142.9134  163.0993 H       1  UNL1        0.1188
     27 H         146.8612  141.4405  162.6737 H       1  UNL1        0.1188
     28 C         144.3843  140.1936  162.0564 C.3     1  UNL1        0.0446
     29 C         143.5130  139.5402  163.0879 C.ar    1  UNL1        0.0066
     30 C         142.0692  139.2676  162.7862 C.ar    1  UNL1       -0.0020
     31 C         141.1979  138.6142  163.8178 C.ar    1  UNL1       -0.0002
     32 C         141.7705  138.2334  165.1509 C.ar    1  UNL1        0.0023
     33 C         143.2144  138.5060  165.4525 C.ar    1  UNL1        0.0293
     34 C         144.0856  139.1594  164.4209 C.ar    1  UNL1        0.1362
     35 F         145.5295  139.4320  164.7226 F       1  UNL1       -0.2045
@<TRIPOS>BOND
     1    24    25    1
     2    25    23    1
     3    23     1    1
     4     1     2    2
     5     1     3   am
     6     3     4    1
     7     4     5    1
     8     5     6    1
     9     6     7    1
    10     7     8    1
    11     8     9    2
    12     8    10   am
    13    10    12    1
    14    12    13    1
    15    13    14   ar
    16    14    15   ar
    17    15    16   ar
    18    16    19    1
    19    19    20    1
    20    19    21    1
    21    19    22    1
    22    16    17   ar
    23    17    18   ar
    24    25    28    1
    25    28    29    1
    26    29    30   ar
    27    30    31   ar
    28    31    32   ar
    29    32    33   ar
    30    33    34   ar
    31    34    35    1
    32     7     3    1
    33    18    13   ar
    34    34    29   ar
    35    24    26    1
    36    24    27    1
    37    10    11    1
@<TRIPOS>MOLECULE
*****
 35 37 0 0 0
SMALL
GASTEIGER

@<TRIPOS>ATOM
      1 C         143.0738  141.9521  162.3801 C.2     1  UNL1        0.2273
      2 O         143.1880  142.1330  163.8648 O.2     1  UNL1       -0.2748
      3 N         143.3553  140.6139  161.7638 N.am    1  UNL1       -0.2730
      4 C         143.2825  140.2835  160.3024 C.3     1  UNL1        0.0939
      5 C         143.6413  138.8365  160.1359 C.3     1  UNL1        0.0237
      6 C         143.9359  138.2728  161.4944 C.3     1  UNL1        0.0310
      7 C         143.7591  139.3713  162.5004 C.3     1  UNL1        0.1518
      8 C         143.9522  139.2486  163.9829 C.2     1  UNL1        0.2408
      9 O         145.3368  139.2197  164.5590 O.2     1  UNL1       -0.2733
     10 N         142.7606  139.1549  164.8892 N.am    1  UNL1       -0.2991
     11 H         141.8518  139.1738  164.5111 H       1  UNL1        0.1498
     12 C         142.9537  139.0322  166.3716 C.3     1  UNL1        0.1164
     13 C         142.2284  139.9591  167.3017 C.ar    1  UNL1       -0.0026
     14 C         142.5299  139.9346  168.7709 C.ar    1  UNL1       -0.0027
     15 C         141.8047  140.8615  169.7008 C.ar    1  UNL1        0.0036
     16 C         140.7780  141.8129  169.1617 C.ar    1  UNL1        0.0714
     17 C         140.4765  141.8374  167.6925 C.ar    1  UNL1        0.0036
     18 C         141.2017  140.9105  166.7625 C.ar    1  UNL1       -0.0027
     19 C         140.0527  142.7398  170.0917 C.3     1  UNL1        0.4186
     20 F         139.3275  143.6666  171.0217 F       1  UNL1       -0.1659
     21 F         141.1524  143.7491  169.9434 F       1  UNL1       -0.1659
     22 F         138.9531  141.7305  170.2400 F       1  UNL1       -0.1659
     23 C         142.6779  143.1095  161.5119 C.3     1  UNL1        0.1010
     24 N         143.6483  145.1903  162.7281 N.3     1  UNL1       -0.3215
     25 C         142.4842  144.4686  162.1163 C.3     1  UNL1        0.0644
     26 H         144.4864  144.6148  162.6458 H       1  UNL1        0.1188
     27 H         143.4560  145.3720  163.7131 H       1  UNL1        0.1188
     28 C         141.1265  145.1061  162.1088 C.3     1  UNL1        0.0446
     29 C         140.0082  144.4984  162.9026 C.ar    1  UNL1        0.0066
     30 C         139.9374  144.7142  164.3853 C.ar    1  UNL1       -0.0020
     31 C         138.8190  144.1064  165.1790 C.ar    1  UNL1       -0.0002
     32 C         137.7716  143.2829  164.4901 C.ar    1  UNL1        0.0023
     33 C         137.8425  143.0671  163.0074 C.ar    1  UNL1        0.0293
     34 C         138.9608  143.6748  162.2137 C.ar    1  UNL1        0.1362
     35 F         139.0316  143.4590  160.7310 F       1  UNL1       -0.2045
@<TRIPOS>BOND
     1    24    25    1
     2    25    23    1
     3    23     1    1
     4     1     2    2
     5     1     3   am
     6     3     4    1
     7     4     5    1
     8     5     6    1
     9     6     7    1
    10     7     8    1
    11     8     9    2
    12     8    10   am
    13    10    12    1
    14    12    13    1
    15    13    14   ar
    16    14    15   ar
    17    15    16   ar
    18    16    19    1
    19    19    20    1
    20    19    21    1
    21    19    22    1
    22    16    17   ar
    23    17    18   ar
    24    25    28    1
    25    28    29    1
    26    29    30   ar
    27    30    31   ar
    28    31    32   ar
    29    32    33   ar
    30    33    34   ar
    31    34    35    1
    32     7     3    1
    33    18    13   ar
    34    34    29   ar
    35    24    26    1
    36    24    27    1
    37    10    11    1
@<TRIPOS>MOLECULE
*****
 35 37 0 0 0
SMALL
GASTEIGER

@<TRIPOS>ATOM
      1 C         140.4193  142.1123  161.4657 C.2     1  UNL1        0.2273
      2 O         140.9544  141.7463  162.8184 O.2     1  UNL1       -0.2748
      3 N         141.3588  142.5461  160.3798 N.am    1  UNL1       -0.2730
      4 C         140.9723  142.9404  158.9851 C.3     1  UNL1        0.0939
      5 C         142.2244  143.2998  158.2413 C.3     1  UNL1        0.0237
      6 C         143.3846  143.1277  159.1763 C.3     1  UNL1        0.0310
      7 C         142.8496  142.6619  160.4980 C.3     1  UNL1        0.1518
      8 C         143.6627  142.3642  161.7228 C.2     1  UNL1        0.2408
      9 O         144.3246  143.4815  162.4735 O.2     1  UNL1       -0.2733
     10 N         143.8140  140.9491  162.1969 N.am    1  UNL1       -0.2991
     11 H         143.3796  140.2158  161.7042 H       1  UNL1        0.1498
     12 C         144.6271  140.6513  163.4217 C.3     1  UNL1        0.1164
     13 C         143.9435  140.4019  164.7334 C.ar    1  UNL1       -0.0026
     14 C         143.3975  141.5528  165.5254 C.ar    1  UNL1       -0.0027
     15 C         142.7139  141.3033  166.8370 C.ar    1  UNL1        0.0036
     16 C         142.5764  139.9029  167.3567 C.ar    1  UNL1        0.0714
     17 C         143.1225  138.7520  166.5647 C.ar    1  UNL1        0.0036
     18 C         143.8060  139.0015  165.2531 C.ar    1  UNL1       -0.0027
     19 C         141.8928  139.6534  168.6684 C.3     1  UNL1        0.4186
     20 F         141.2093  139.4040  169.9801 F       1  UNL1       -0.1659
     21 F         142.8639  138.5493  168.9646 F       1  UNL1       -0.1659
     22 F         140.9218  140.7576  168.3723 F       1  UNL1       -0.1659
     23 C         138.9448  142.0444  161.1990 C.3     1  UNL1        0.1010
     24 N         137.7021  143.9633  162.4333 N.3     1  UNL1       -0.3215
     25 C         137.9715  142.4997  162.2456 C.3     1  UNL1        0.0644
     26 H         138.2618  144.4998  161.7705 H       1  UNL1        0.1188
     27 H         137.9489  144.2351  163.3850 H       1  UNL1        0.1188
     28 C         137.2677  141.4913  163.1045 C.3     1  UNL1        0.0446
     29 C         138.0433  140.3763  163.7409 C.ar    1  UNL1        0.0066
     30 C         138.6150  140.5502  165.1167 C.ar    1  UNL1       -0.0020
     31 C         139.3907  139.4350  165.7530 C.ar    1  UNL1       -0.0002
     32 C         139.5947  138.1460  165.0135 C.ar    1  UNL1        0.0023
     33 C         139.0230  137.9722  163.6376 C.ar    1  UNL1        0.0293
     34 C         138.2474  139.0873  163.0014 C.ar    1  UNL1        0.1362
     35 F         137.6757  138.9133  161.6255 F       1  UNL1       -0.2045
@<TRIPOS>BOND
     1    24    25    1
     2    25    23    1
     3    23     1    1
     4     1     2    2
     5     1     3   am
     6     3     4    1
     7     4     5    1
     8     5     6    1
     9     6     7    1
    10     7     8    1
    11     8     9    2
    12     8    10   am
    13    10    12    1
    14    12    13    1
    15    13    14   ar
    16    14    15   ar
    17    15    16   ar
    18    16    19    1
    19    19    20    1
    20    19    21    1
    21    19    22    1
    22    16    17   ar
    23    17    18   ar
    24    25    28    1
    25    28    29    1
    26    29    30   ar
    27    30    31   ar
    28    31    32   ar
    29    32    33   ar
    30    33    34   ar
    31    34    35    1
    32     7     3    1
    33    18    13   ar
    34    34    29   ar
    35    24    26    1
    36    24    27    1
    37    10    11    1
@<TRIPOS>MOLECULE
*****
 35 37 0 0 0
SMALL
GASTEIGER

@<TRIPOS>ATOM
      1 C         140.8798  140.0345  162.4077 C.2     1  UNL1        0.2273
      2 O         141.1334  140.5825  163.7808 O.2     1  UNL1       -0.2748
      3 N         141.8809  139.1179  161.7693 N.am    1  UNL1       -0.2730
      4 C         141.7649  138.4953  160.4096 C.3     1  UNL1        0.0939
      5 C         142.9861  137.6555  160.1785 C.3     1  UNL1        0.0237
      6 C         143.8569  137.7591  161.3954 C.3     1  UNL1        0.0310
      7 C         143.1739  138.6629  162.3786 C.3     1  UNL1        0.1518
      8 C         143.6927  139.0446  163.7332 C.2     1  UNL1        0.2408
      9 O         144.9223  139.8953  163.8530 O.2     1  UNL1       -0.2733
     10 N         142.9819  138.5756  164.9681 N.am    1  UNL1       -0.2991
     11 H         142.1749  138.0173  164.8895 H       1  UNL1        0.1498
     12 C         143.5007  138.9574  166.3228 C.3     1  UNL1        0.1164
     13 C         142.6957  139.8640  167.2061 C.ar    1  UNL1       -0.0026
     14 C         142.4645  141.2906  166.8048 C.ar    1  UNL1       -0.0027
     15 C         141.6596  142.1971  167.6881 C.ar    1  UNL1        0.0036
     16 C         141.0859  141.6769  168.9727 C.ar    1  UNL1        0.0714
     17 C         141.3171  140.2503  169.3740 C.ar    1  UNL1        0.0036
     18 C         142.1220  139.3438  168.4907 C.ar    1  UNL1       -0.0027
     19 C         140.2809  142.5835  169.8561 C.3     1  UNL1        0.4186
     20 F         139.4760  143.4901  170.7393 F       1  UNL1       -0.1659
     21 F         139.2352  141.5174  169.9974 F       1  UNL1       -0.1659
     22 F         141.3265  143.6496  169.7147 F       1  UNL1       -0.1659
     23 C         139.6250  140.4032  161.6730 C.3     1  UNL1        0.1010
     24 N         137.8419  138.5517  162.0505 N.3     1  UNL1       -0.3215
     25 C         138.2902  139.9746  162.2064 C.3     1  UNL1        0.0644
     26 H         138.5626  138.0197  161.5626 H       1  UNL1        0.1188
     27 H         136.9762  138.5250  161.5118 H       1  UNL1        0.1188
     28 C         137.4037  140.9691  162.8957 C.3     1  UNL1        0.0446
     29 C         137.9800  142.2511  163.4194 C.ar    1  UNL1        0.0066
     30 C         137.9478  143.4889  162.5728 C.ar    1  UNL1       -0.0020
     31 C         138.5242  144.7709  163.0967 C.ar    1  UNL1       -0.0002
     32 C         139.1326  144.8151  164.4670 C.ar    1  UNL1        0.0023
     33 C         139.1647  143.5772  165.3136 C.ar    1  UNL1        0.0293
     34 C         138.5884  142.2952  164.7898 C.ar    1  UNL1        0.1362
     35 F         138.6206  141.0574  165.6364 F       1  UNL1       -0.2045
@<TRIPOS>BOND
     1    24    25    1
     2    25    23    1
     3    23     1    1
     4     1     2    2
     5     1     3   am
     6     3     4    1
     7     4     5    1
     8     5     6    1
     9     6     7    1
    10     7     8    1
    11     8     9    2
    12     8    10   am
    13    10    12    1
    14    12    13    1
    15    13    14   ar
    16    14    15   ar
    17    15    16   ar
    18    16    19    1
    19    19    20    1
    20    19    21    1
    21    19    22    1
    22    16    17   ar
    23    17    18   ar
    24    25    28    1
    25    28    29    1
    26    29    30   ar
    27    30    31   ar
    28    31    32   ar
    29    32    33   ar
    30    33    34   ar
    31    34    35    1
    32     7     3    1
    33    18    13   ar
    34    34    29   ar
    35    24    26    1
    36    24    27    1
    37    10    11    1
