@<TRIPOS>MOLECULE
*****
 36 39 0 0 0
SMALL
GASTEIGER

@<TRIPOS>ATOM
      1 N         140.4390  139.9474  160.6797 N.3     1  UNL1       -0.2679
      2 C         141.3044  141.1624  160.5215 C.3     1  UNL1        0.0897
      3 C         142.6831  141.1833  161.1121 C.3     1  UNL1        0.0897
      4 N         143.1963  139.9891  161.8610 N.3     1  UNL1       -0.2680
      5 C         142.3309  138.7742  162.0193 C.3     1  UNL1        0.0897
      6 C         140.9523  138.7534  161.4286 C.3     1  UNL1        0.0897
      7 C         139.0604  139.9266  160.0891 C.3     1  UNL1        0.1080
      8 C         137.8678  140.1957  160.9583 C.3     1  UNL1        0.1661
      9 O         136.6081  139.4036  160.7693 O.3     1  UNL1       -0.3771
     10 H         136.7327  138.7647  160.0502 H       1  UNL1        0.2109
     11 C         138.1150  143.7615  162.6826 C.ar    1  UNL1        0.1508
     12 C         138.0478  142.7003  161.6246 C.ar    1  UNL1        0.0548
     13 C         137.9350  141.2568  162.0163 C.ar    1  UNL1        0.0901
     14 N         137.8895  140.8744  163.4661 N.ar    1  UNL1       -0.2448
     15 C         137.9568  141.9355  164.5241 C.ar    1  UNL1        0.1118
     16 C         138.0695  143.3791  164.1323 C.ar    1  UNL1        0.1213
     17 C         138.1367  144.4402  165.1905 C.1     1  UNL1        0.1051
     18 N         138.2040  145.5014  166.2485 N.1     1  UNL1       -0.1907
     19 O         138.2277  145.2051  162.2910 O.3     1  UNL1       -0.4747
     20 C         140.8076  144.9730  162.0898 C.3     1  UNL1        0.0512
     21 C         139.5795  145.8335  162.1242 C.3     1  UNL1        0.2056
     22 C         144.5749  140.0100  162.4517 C.3     1  UNL1        0.1064
     23 C         144.8238  140.7183  163.7503 C.3     1  UNL1        0.1483
     24 O         146.0738  141.5264  163.9363 O.3     1  UNL1       -0.3786
     25 H         146.0785  141.9148  164.8251 H       1  UNL1        0.2108
     26 C         143.8227  140.6186  164.8629 C.ar    1  UNL1        0.0015
     27 C         143.7047  139.3497  165.6541 C.ar    1  UNL1       -0.0020
     28 C         142.7037  139.2500  166.7667 C.ar    1  UNL1        0.0060
     29 C         141.8206  140.4191  167.0881 C.ar    1  UNL1        0.0748
     30 C         141.9386  141.6880  166.2969 C.ar    1  UNL1        0.0233
     31 C         142.9396  141.7878  165.1843 C.ar    1  UNL1       -0.0238
     32 C         143.0577  143.0567  164.3931 C.3     1  UNL1        0.0306
     33 C         140.9405  142.6673  166.8398 C.3     1  UNL1        0.2352
     34 O         140.2057  142.0036  167.9666 O.3     1  UNL1       -0.4404
     35 C         140.7496  140.6142  168.1200 C.2     1  UNL1        0.3413
     36 O         140.3012  139.5982  169.1284 O.2     1  UNL1       -0.2449
@<TRIPOS>BOND
     1    20    21    1
     2    21    19    1
     3    19    11    1
     4    11    12   ar
     5    12    13   ar
     6    13     8    1
     7     8     9    1
     8     8     7    1
     9     7     1    1
    10     1     2    1
    11     2     3    1
    12     3     4    1
    13     4    22    1
    14    22    23    1
    15    23    24    1
    16    23    26    1
    17    26    27   ar
    18    27    28   ar
    19    28    29   ar
    20    29    30   ar
    21    30    31   ar
    22    31    32    1
    23    30    33    1
    24    33    34    1
    25    34    35    1
    26    35    36    2
    27     4     5    1
    28     5     6    1
    29    13    14   ar
    30    14    15   ar
    31    15    16   ar
    32    16    17    1
    33    17    18    3
    34    16    11   ar
    35     6     1    1
    36    31    26   ar
    37    35    29    1
    38     9    10    1
    39    24    25    1
@<TRIPOS>MOLECULE
*****
 36 39 0 0 0
SMALL
GASTEIGER

@<TRIPOS>ATOM
      1 N         141.2501  141.1642  159.4492 N.3     1  UNL1       -0.2679
      2 C         141.4811  139.8183  160.0697 C.3     1  UNL1        0.0897
      3 C         140.5007  139.2733  161.0656 C.3     1  UNL1        0.0897
      4 N         139.2892  140.0743  161.4408 N.3     1  UNL1       -0.2680
      5 C         139.0581  141.4202  160.8203 C.3     1  UNL1        0.0897
      6 C         140.0386  141.9651  159.8245 C.3     1  UNL1        0.0897
      7 C         142.2305  141.7093  158.4534 C.3     1  UNL1        0.1080
      8 C         143.1427  142.8361  158.8384 C.3     1  UNL1        0.1661
      9 O         143.7145  143.7329  157.7806 O.3     1  UNL1       -0.3771
     10 H         143.3967  143.4487  156.9093 H       1  UNL1        0.2109
     11 C         144.8190  142.4080  162.4099 C.ar    1  UNL1        0.1508
     12 C         144.4785  142.1782  160.9673 C.ar    1  UNL1        0.0548
     13 C         143.4832  143.0660  160.2810 C.ar    1  UNL1        0.0901
     14 N         142.8284  144.1837  161.0373 N.ar    1  UNL1       -0.2448
     15 C         143.1689  144.4135  162.4799 C.ar    1  UNL1        0.1118
     16 C         144.1642  143.5256  163.1662 C.ar    1  UNL1        0.1213
     17 C         144.5047  143.7556  164.6089 C.1     1  UNL1        0.1051
     18 N         144.8450  143.9855  166.0516 N.1     1  UNL1       -0.1907
     19 O         145.8144  141.5202  163.0964 O.3     1  UNL1       -0.4747
     20 C         143.9169  139.9238  163.8718 C.3     1  UNL1        0.0512
     21 C         145.3402  140.3893  163.9601 C.3     1  UNL1        0.2056
     22 C         138.3088  139.5292  162.4366 C.3     1  UNL1        0.1064
     23 C         137.7822  140.4105  163.5302 C.3     1  UNL1        0.1483
     24 O         136.6426  141.3465  163.2559 O.3     1  UNL1       -0.3786
     25 H         136.4273  141.8393  164.0632 H       1  UNL1        0.2108
     26 C         138.3952  140.3559  164.8982 C.ar    1  UNL1        0.0015
     27 C         138.0197  139.2547  165.8449 C.ar    1  UNL1       -0.0020
     28 C         138.6327  139.2000  167.2128 C.ar    1  UNL1        0.0060
     29 C         139.6211  140.2467  167.6341 C.ar    1  UNL1        0.0748
     30 C         139.9966  141.3480  166.6874 C.ar    1  UNL1        0.0233
     31 C         139.3837  141.4026  165.3195 C.ar    1  UNL1       -0.0238
     32 C         139.7591  142.5039  164.3727 C.3     1  UNL1        0.0306
     33 C         140.9920  142.2330  167.3773 C.3     1  UNL1        0.2352
     34 O         141.2317  141.6787  168.7503 O.3     1  UNL1       -0.4404
     35 C         140.3844  140.4511  168.9091 C.2     1  UNL1        0.3413
     36 O         140.3131  139.5807  170.1286 O.2     1  UNL1       -0.2449
@<TRIPOS>BOND
     1    20    21    1
     2    21    19    1
     3    19    11    1
     4    11    12   ar
     5    12    13   ar
     6    13     8    1
     7     8     9    1
     8     8     7    1
     9     7     1    1
    10     1     2    1
    11     2     3    1
    12     3     4    1
    13     4    22    1
    14    22    23    1
    15    23    24    1
    16    23    26    1
    17    26    27   ar
    18    27    28   ar
    19    28    29   ar
    20    29    30   ar
    21    30    31   ar
    22    31    32    1
    23    30    33    1
    24    33    34    1
    25    34    35    1
    26    35    36    2
    27     4     5    1
    28     5     6    1
    29    13    14   ar
    30    14    15   ar
    31    15    16   ar
    32    16    17    1
    33    17    18    3
    34    16    11   ar
    35     6     1    1
    36    31    26   ar
    37    35    29    1
    38     9    10    1
    39    24    25    1
@<TRIPOS>MOLECULE
*****
 36 39 0 0 0
SMALL
GASTEIGER

@<TRIPOS>ATOM
      1 N         143.4306  139.3088  163.2118 N.3     1  UNL1       -0.2679
      2 C         143.3000  139.2249  164.7038 C.3     1  UNL1        0.0897
      3 C         142.0491  138.6688  165.3170 C.3     1  UNL1        0.0897
      4 N         140.9288  138.1967  164.4382 N.3     1  UNL1       -0.2680
      5 C         141.0595  138.2806  162.9462 C.3     1  UNL1        0.0897
      6 C         142.3104  138.8367  162.3331 C.3     1  UNL1        0.0897
      7 C         144.6815  139.8649  162.5986 C.3     1  UNL1        0.1080
      8 C         144.9606  141.3371  162.6682 C.3     1  UNL1        0.1661
      9 O         146.2941  141.8255  163.1511 O.3     1  UNL1       -0.3771
     10 H         146.8544  141.0664  163.3762 H       1  UNL1        0.2109
     11 C         142.0522  143.0668  160.5948 C.ar    1  UNL1        0.1508
     12 C         143.1065  142.0832  161.0083 C.ar    1  UNL1        0.0548
     13 C         143.9064  142.3207  162.2548 C.ar    1  UNL1        0.0901
     14 N         143.6519  143.5418  163.0879 N.ar    1  UNL1       -0.2448
     15 C         142.5976  144.5254  162.6745 C.ar    1  UNL1        0.1118
     16 C         141.7977  144.2879  161.4280 C.ar    1  UNL1        0.1213
     17 C         140.7434  145.2716  161.0146 C.1     1  UNL1        0.1051
     18 N         139.6890  146.2552  160.6013 N.1     1  UNL1       -0.1907
     19 O         141.2523  142.8293  159.3483 O.3     1  UNL1       -0.4747
     20 C         138.7040  142.4892  159.7234 C.3     1  UNL1        0.0512
     21 C         140.0538  141.9281  159.3866 C.3     1  UNL1        0.2056
     22 C         139.6780  137.6406  165.0514 C.3     1  UNL1        0.1064
     23 C         138.6379  138.5685  165.6056 C.3     1  UNL1        0.1483
     24 O         137.7418  138.1118  166.7185 O.3     1  UNL1       -0.3786
     25 H         137.1319  138.8273  166.9569 H       1  UNL1        0.2108
     26 C         138.4938  139.9532  165.0469 C.ar    1  UNL1        0.0015
     27 C         137.7212  140.1742  163.7804 C.ar    1  UNL1       -0.0020
     28 C         137.5771  141.5588  163.2218 C.ar    1  UNL1        0.0060
     29 C         138.2056  142.7224  163.9297 C.ar    1  UNL1        0.0748
     30 C         138.9782  142.5013  165.1962 C.ar    1  UNL1        0.0233
     31 C         139.1223  141.1167  165.7549 C.ar    1  UNL1       -0.0238
     32 C         139.8950  140.8956  167.0215 C.3     1  UNL1        0.0306
     33 C         139.4830  143.8321  165.6696 C.3     1  UNL1        0.2352
     34 O         139.0223  144.8757  164.6956 O.3     1  UNL1       -0.4404
     35 C         138.2328  144.1898  163.6202 C.2     1  UNL1        0.3413
     36 O         137.5845  144.8547  162.4423 O.2     1  UNL1       -0.2449
@<TRIPOS>BOND
     1    20    21    1
     2    21    19    1
     3    19    11    1
     4    11    12   ar
     5    12    13   ar
     6    13     8    1
     7     8     9    1
     8     8     7    1
     9     7     1    1
    10     1     2    1
    11     2     3    1
    12     3     4    1
    13     4    22    1
    14    22    23    1
    15    23    24    1
    16    23    26    1
    17    26    27   ar
    18    27    28   ar
    19    28    29   ar
    20    29    30   ar
    21    30    31   ar
    22    31    32    1
    23    30    33    1
    24    33    34    1
    25    34    35    1
    26    35    36    2
    27     4     5    1
    28     5     6    1
    29    13    14   ar
    30    14    15   ar
    31    15    16   ar
    32    16    17    1
    33    17    18    3
    34    16    11   ar
    35     6     1    1
    36    31    26   ar
    37    35    29    1
    38     9    10    1
    39    24    25    1
@<TRIPOS>MOLECULE
*****
 36 39 0 0 0
SMALL
GASTEIGER

@<TRIPOS>ATOM
      1 N         138.1967  140.7972  160.9023 N.3     1  UNL1       -0.2679
      2 C         137.4853  140.5995  162.2080 C.3     1  UNL1        0.0897
      3 C         137.3320  141.7485  163.1600 C.3     1  UNL1        0.0897
      4 N         137.8902  143.0951  162.8063 N.3     1  UNL1       -0.2680
      5 C         138.6016  143.2928  161.5006 C.3     1  UNL1        0.0897
      6 C         138.7549  142.1438  160.5486 C.3     1  UNL1        0.0897
      7 C         138.3500  139.6483  159.9502 C.3     1  UNL1        0.1080
      8 C         139.6087  138.8322  159.9558 C.3     1  UNL1        0.1661
      9 O         140.0589  138.1395  158.7039 O.3     1  UNL1       -0.3771
     10 H         139.4283  138.3208  157.9894 H       1  UNL1        0.2109
     11 C         140.6445  137.8993  163.6715 C.ar    1  UNL1        0.1508
     12 C         139.8362  138.0225  162.4139 C.ar    1  UNL1        0.0548
     13 C         140.4170  138.7090  161.2133 C.ar    1  UNL1        0.0901
     14 N         141.8061  139.2722  161.2703 N.ar    1  UNL1       -0.2448
     15 C         142.6143  139.1490  162.5279 C.ar    1  UNL1        0.1118
     16 C         142.0335  138.4625  163.7285 C.ar    1  UNL1        0.1213
     17 C         142.8419  138.3393  164.9860 C.1     1  UNL1        0.1051
     18 N         143.6503  138.2159  166.2435 N.1     1  UNL1       -0.1907
     19 O         140.0637  137.2128  164.8722 O.3     1  UNL1       -0.4747
     20 C         138.4654  138.9892  165.8916 C.3     1  UNL1        0.0512
     21 C         138.7049  137.6018  165.3743 C.3     1  UNL1        0.2056
     22 C         137.7369  144.2441  163.7583 C.3     1  UNL1        0.1064
     23 C         138.8202  144.5450  164.7512 C.3     1  UNL1        0.1483
     24 O         138.5555  145.4880  165.8873 O.3     1  UNL1       -0.3786
     25 H         139.3543  145.5712  166.4313 H       1  UNL1        0.2108
     26 C         140.1684  143.9029  164.6080 C.ar    1  UNL1        0.0015
     27 C         140.4816  142.6416  165.3569 C.ar    1  UNL1       -0.0020
     28 C         141.8297  141.9995  165.2137 C.ar    1  UNL1        0.0060
     29 C         142.8644  142.6188  164.3216 C.ar    1  UNL1        0.0748
     30 C         142.5512  143.8801  163.5727 C.ar    1  UNL1        0.0233
     31 C         141.2031  144.5222  163.7159 C.ar    1  UNL1       -0.0238
     32 C         140.8898  145.7836  162.9670 C.3     1  UNL1        0.0306
     33 C         143.7627  144.2574  162.7729 C.3     1  UNL1        0.2352
     34 O         144.8248  143.2292  163.0274 O.3     1  UNL1       -0.4404
     35 C         144.2696  142.2165  163.9846 C.2     1  UNL1        0.3413
     36 O         144.9927  141.0128  164.5121 O.2     1  UNL1       -0.2449
@<TRIPOS>BOND
     1    20    21    1
     2    21    19    1
     3    19    11    1
     4    11    12   ar
     5    12    13   ar
     6    13     8    1
     7     8     9    1
     8     8     7    1
     9     7     1    1
    10     1     2    1
    11     2     3    1
    12     3     4    1
    13     4    22    1
    14    22    23    1
    15    23    24    1
    16    23    26    1
    17    26    27   ar
    18    27    28   ar
    19    28    29   ar
    20    29    30   ar
    21    30    31   ar
    22    31    32    1
    23    30    33    1
    24    33    34    1
    25    34    35    1
    26    35    36    2
    27     4     5    1
    28     5     6    1
    29    13    14   ar
    30    14    15   ar
    31    15    16   ar
    32    16    17    1
    33    17    18    3
    34    16    11   ar
    35     6     1    1
    36    31    26   ar
    37    35    29    1
    38     9    10    1
    39    24    25    1
@<TRIPOS>MOLECULE
*****
 36 39 0 0 0
SMALL
GASTEIGER

@<TRIPOS>ATOM
      1 N         139.0659  142.6681  161.4676 N.3     1  UNL1       -0.2679
      2 C         138.1414  143.1701  162.5368 C.3     1  UNL1        0.0897
      3 C         137.8223  142.3044  163.7195 C.3     1  UNL1        0.0897
      4 N         138.4278  140.9367  163.8330 N.3     1  UNL1       -0.2680
      5 C         139.3524  140.4347  162.7637 C.3     1  UNL1        0.0897
      6 C         139.6714  141.3004  161.5811 C.3     1  UNL1        0.0897
      7 C         139.3850  143.5337  160.2849 C.3     1  UNL1        0.1080
      8 C         140.5226  144.5090  160.3543 C.3     1  UNL1        0.1661
      9 O         140.7035  145.5286  159.2691 O.3     1  UNL1       -0.3771
     10 H         140.0054  145.4206  158.6044 H       1  UNL1        0.2109
     11 C         143.6437  143.5331  162.6028 C.ar    1  UNL1        0.1508
     12 C         142.6871  143.5775  161.4482 C.ar    1  UNL1        0.0548
     13 C         141.4791  144.4647  161.5088 C.ar    1  UNL1        0.0901
     14 N         141.2277  145.3074  162.7240 N.ar    1  UNL1       -0.2448
     15 C         142.1843  145.2630  163.8785 C.ar    1  UNL1        0.1118
     16 C         143.3923  144.3758  163.8179 C.ar    1  UNL1        0.1213
     17 C         144.3489  144.3315  164.9725 C.1     1  UNL1        0.1051
     18 N         145.3055  144.2872  166.1270 N.1     1  UNL1       -0.1907
     19 O         144.8518  142.6460  162.5422 O.3     1  UNL1       -0.4747
     20 C         144.4485  140.1003  162.8691 C.3     1  UNL1        0.0512
     21 C         144.7397  141.2644  161.9690 C.3     1  UNL1        0.2056
     22 C         138.1087  140.0711  165.0157 C.3     1  UNL1        0.1064
     23 C         139.2138  139.3852  165.7630 C.3     1  UNL1        0.1483
     24 O         139.6810  138.0269  165.3310 O.3     1  UNL1       -0.3786
     25 H         140.3952  137.7294  165.9161 H       1  UNL1        0.2108
     26 C         139.8517  140.0578  166.9424 C.ar    1  UNL1        0.0015
     27 C         139.2165  139.9568  168.2974 C.ar    1  UNL1       -0.0020
     28 C         139.8543  140.6293  169.4768 C.ar    1  UNL1        0.0060
     29 C         141.1274  141.4028  169.3011 C.ar    1  UNL1        0.0748
     30 C         141.7626  141.5038  167.9460 C.ar    1  UNL1        0.0233
     31 C         141.1248  140.8313  166.7666 C.ar    1  UNL1       -0.0238
     32 C         141.7600  140.9323  165.4115 C.3     1  UNL1        0.0306
     33 C         143.0082  142.3290  168.0783 C.3     1  UNL1        0.2352
     34 O         143.1428  142.7380  169.5152 O.3     1  UNL1       -0.4404
     35 C         141.9804  142.1656  170.2709 C.2     1  UNL1        0.3413
     36 O         141.7172  142.3275  171.7387 O.2     1  UNL1       -0.2449
@<TRIPOS>BOND
     1    20    21    1
     2    21    19    1
     3    19    11    1
     4    11    12   ar
     5    12    13   ar
     6    13     8    1
     7     8     9    1
     8     8     7    1
     9     7     1    1
    10     1     2    1
    11     2     3    1
    12     3     4    1
    13     4    22    1
    14    22    23    1
    15    23    24    1
    16    23    26    1
    17    26    27   ar
    18    27    28   ar
    19    28    29   ar
    20    29    30   ar
    21    30    31   ar
    22    31    32    1
    23    30    33    1
    24    33    34    1
    25    34    35    1
    26    35    36    2
    27     4     5    1
    28     5     6    1
    29    13    14   ar
    30    14    15   ar
    31    15    16   ar
    32    16    17    1
    33    17    18    3
    34    16    11   ar
    35     6     1    1
    36    31    26   ar
    37    35    29    1
    38     9    10    1
    39    24    25    1
@<TRIPOS>MOLECULE
*****
 36 39 0 0 0
SMALL
GASTEIGER

@<TRIPOS>ATOM
      1 N         141.1435  137.8256  161.4942 N.3     1  UNL1       -0.2679
      2 C         141.8451  137.6926  162.8133 C.3     1  UNL1        0.0897
      3 C         141.0512  137.6643  164.0856 C.3     1  UNL1        0.0897
      4 N         139.5555  137.7690  164.0388 N.3     1  UNL1       -0.2680
      5 C         138.8539  137.9020  162.7197 C.3     1  UNL1        0.0897
      6 C         139.6479  137.9303  161.4475 C.3     1  UNL1        0.0897
      7 C         141.9374  137.8539  160.2219 C.3     1  UNL1        0.1080
      8 C         142.1083  139.1423  159.4729 C.3     1  UNL1        0.1661
      9 O         141.8863  139.1828  157.9900 O.3     1  UNL1       -0.3771
     10 H         141.6400  138.2988  157.6757 H       1  UNL1        0.2109
     11 C         144.2339  141.7240  161.6098 C.ar    1  UNL1        0.1508
     12 C         143.8409  140.4762  160.8759 C.ar    1  UNL1        0.0548
     13 C         142.5011  140.3901  160.2068 C.ar    1  UNL1        0.0901
     14 N         141.5543  141.5517  160.2717 N.ar    1  UNL1       -0.2448
     15 C         141.9473  142.7994  161.0056 C.ar    1  UNL1        0.1118
     16 C         143.2871  142.8856  161.6747 C.ar    1  UNL1        0.1213
     17 C         143.6799  144.1334  162.4087 C.1     1  UNL1        0.1051
     18 N         144.0728  145.3813  163.1425 N.1     1  UNL1       -0.1907
     19 O         145.5736  141.8102  162.2789 O.3     1  UNL1       -0.4747
     20 C         145.1675  140.1359  164.2235 C.3     1  UNL1        0.0512
     21 C         145.7144  141.4409  163.7259 C.3     1  UNL1        0.2056
     22 C         138.7616  137.7407  165.3111 C.3     1  UNL1        0.1064
     23 C         138.5158  139.0108  166.0702 C.3     1  UNL1        0.1483
     24 O         138.1399  138.9566  167.5213 O.3     1  UNL1       -0.3786
     25 H         138.0181  139.8582  167.8577 H       1  UNL1        0.2108
     26 C         138.6458  140.3354  165.3781 C.ar    1  UNL1        0.0015
     27 C         137.5687  140.8028  164.4448 C.ar    1  UNL1       -0.0020
     28 C         137.6988  142.1272  163.7527 C.ar    1  UNL1        0.0060
     29 C         138.9060  142.9842  163.9940 C.ar    1  UNL1        0.0748
     30 C         139.9832  142.5167  164.9274 C.ar    1  UNL1        0.0233
     31 C         139.8532  141.1923  165.6194 C.ar    1  UNL1       -0.0238
     32 C         140.9303  140.7247  166.5528 C.3     1  UNL1        0.0306
     33 C         141.0504  143.5700  164.9683 C.3     1  UNL1        0.2352
     34 O         140.6328  144.6884  164.0602 O.3     1  UNL1       -0.4404
     35 C         139.3075  144.3264  163.4581 C.2     1  UNL1        0.3413
     36 O         138.5217  145.1602  162.4900 O.2     1  UNL1       -0.2449
@<TRIPOS>BOND
     1    20    21    1
     2    21    19    1
     3    19    11    1
     4    11    12   ar
     5    12    13   ar
     6    13     8    1
     7     8     9    1
     8     8     7    1
     9     7     1    1
    10     1     2    1
    11     2     3    1
    12     3     4    1
    13     4    22    1
    14    22    23    1
    15    23    24    1
    16    23    26    1
    17    26    27   ar
    18    27    28   ar
    19    28    29   ar
    20    29    30   ar
    21    30    31   ar
    22    31    32    1
    23    30    33    1
    24    33    34    1
    25    34    35    1
    26    35    36    2
    27     4     5    1
    28     5     6    1
    29    13    14   ar
    30    14    15   ar
    31    15    16   ar
    32    16    17    1
    33    17    18    3
    34    16    11   ar
    35     6     1    1
    36    31    26   ar
    37    35    29    1
    38     9    10    1
    39    24    25    1
@<TRIPOS>MOLECULE
*****
 36 39 0 0 0
SMALL
GASTEIGER

@<TRIPOS>ATOM
      1 N         141.3102  139.4431  159.4337 N.3     1  UNL1       -0.2679
      2 C         140.1968  140.4473  159.4782 C.3     1  UNL1        0.0897
      3 C         139.1061  140.3130  160.4991 C.3     1  UNL1        0.0897
      4 N         139.1287  139.1744  161.4754 N.3     1  UNL1       -0.2680
      5 C         140.2421  138.1702  161.4309 C.3     1  UNL1        0.0897
      6 C         141.3328  138.3046  160.4101 C.3     1  UNL1        0.0897
      7 C         142.4010  139.5775  158.4129 C.3     1  UNL1        0.1080
      8 C         143.6900  140.2529  158.7769 C.3     1  UNL1        0.1661
      9 O         144.8210  140.2904  157.7924 O.3     1  UNL1       -0.3771
     10 H         144.5555  139.8363  156.9774 H       1  UNL1        0.2109
     11 C         143.6462  142.9718  161.6674 C.ar    1  UNL1        0.1508
     12 C         143.4883  142.3340  160.3190 C.ar    1  UNL1        0.0548
     13 C         143.8478  140.8906  160.1253 C.ar    1  UNL1        0.0901
     14 N         144.3652  140.0851  161.2801 N.ar    1  UNL1       -0.2448
     15 C         144.5230  140.7229  162.6285 C.ar    1  UNL1        0.1118
     16 C         144.1635  142.1663  162.8222 C.ar    1  UNL1        0.1213
     17 C         144.3214  142.8040  164.1707 C.1     1  UNL1        0.1051
     18 N         144.4793  143.4418  165.5191 N.1     1  UNL1       -0.1907
     19 O         143.2867  144.4152  161.8611 O.3     1  UNL1       -0.4747
     20 C         141.6894  145.4293  163.6417 C.3     1  UNL1        0.0512
     21 C         141.9028  144.7908  162.3012 C.3     1  UNL1        0.2056
     22 C         138.0379  139.0401  162.4963 C.3     1  UNL1        0.1064
     23 C         137.7980  140.1407  163.4867 C.3     1  UNL1        0.1483
     24 O         136.8712  141.2693  163.1439 O.3     1  UNL1       -0.3786
     25 H         136.8287  141.8901  163.8880 H       1  UNL1        0.2108
     26 C         138.4849  140.1129  164.8200 C.ar    1  UNL1        0.0015
     27 C         137.9395  139.2603  165.9269 C.ar    1  UNL1       -0.0020
     28 C         138.6264  139.2324  167.2601 C.ar    1  UNL1        0.0060
     29 C         139.8586  140.0573  167.4863 C.ar    1  UNL1        0.0748
     30 C         140.4040  140.9100  166.3793 C.ar    1  UNL1        0.0233
     31 C         139.7172  140.9378  165.0461 C.ar    1  UNL1       -0.0238
     32 C         140.2625  141.7905  163.9390 C.3     1  UNL1        0.0306
     33 C         141.6264  141.6111  166.8934 C.3     1  UNL1        0.2352
     34 O         141.8364  141.1917  168.3182 O.3     1  UNL1       -0.4404
     35 C         140.7439  140.2314  168.6847 C.2     1  UNL1        0.3413
     36 O         140.5676  139.5627  170.0157 O.2     1  UNL1       -0.2449
@<TRIPOS>BOND
     1    20    21    1
     2    21    19    1
     3    19    11    1
     4    11    12   ar
     5    12    13   ar
     6    13     8    1
     7     8     9    1
     8     8     7    1
     9     7     1    1
    10     1     2    1
    11     2     3    1
    12     3     4    1
    13     4    22    1
    14    22    23    1
    15    23    24    1
    16    23    26    1
    17    26    27   ar
    18    27    28   ar
    19    28    29   ar
    20    29    30   ar
    21    30    31   ar
    22    31    32    1
    23    30    33    1
    24    33    34    1
    25    34    35    1
    26    35    36    2
    27     4     5    1
    28     5     6    1
    29    13    14   ar
    30    14    15   ar
    31    15    16   ar
    32    16    17    1
    33    17    18    3
    34    16    11   ar
    35     6     1    1
    36    31    26   ar
    37    35    29    1
    38     9    10    1
    39    24    25    1
@<TRIPOS>MOLECULE
*****
 36 39 0 0 0
SMALL
GASTEIGER

@<TRIPOS>ATOM
      1 N         143.3993  138.8073  163.3869 N.3     1  UNL1       -0.2679
      2 C         142.2092  138.0121  163.8355 C.3     1  UNL1        0.0897
      3 C         141.6005  138.2682  165.1823 C.3     1  UNL1        0.0897
      4 N         142.1821  139.3195  166.0805 N.3     1  UNL1       -0.2680
      5 C         143.3722  140.1147  165.6319 C.3     1  UNL1        0.0897
      6 C         143.9808  139.8586  164.2851 C.3     1  UNL1        0.0897
      7 C         144.0080  138.5513  162.0401 C.3     1  UNL1        0.1080
      8 C         143.2148  138.8188  160.7953 C.3     1  UNL1        0.1661
      9 O         143.0707  137.7492  159.7535 O.3     1  UNL1       -0.3771
     10 H         143.5474  136.9540  160.0385 H       1  UNL1        0.2109
     11 C         142.6160  142.7417  160.8380 C.ar    1  UNL1        0.1508
     12 C         143.2650  141.4047  161.0408 C.ar    1  UNL1        0.0548
     13 C         142.5656  140.1557  160.5925 C.ar    1  UNL1        0.0901
     14 N         141.2172  140.2437  159.9413 N.ar    1  UNL1       -0.2448
     15 C         140.5682  141.5807  159.7385 C.ar    1  UNL1        0.1118
     16 C         141.2676  142.8297  160.1868 C.ar    1  UNL1        0.1213
     17 C         140.6184  144.1667  159.9839 C.1     1  UNL1        0.1051
     18 N         139.9692  145.5036  159.7811 N.1     1  UNL1       -0.1907
     19 O         143.3153  143.9907  161.2862 O.3     1  UNL1       -0.4747
     20 C         143.5972  143.8220  163.8635 C.3     1  UNL1        0.0512
     21 C         143.0634  144.5396  162.6593 C.3     1  UNL1        0.2056
     22 C         141.5734  139.5755  167.4274 C.3     1  UNL1        0.1064
     23 C         140.2124  140.1977  167.5292 C.3     1  UNL1        0.1483
     24 O         139.3413  139.9061  168.7151 O.3     1  UNL1       -0.3786
     25 H         138.5019  140.3839  168.6250 H       1  UNL1        0.2108
     26 C         139.7224  141.1115  166.4452 C.ar    1  UNL1        0.0015
     27 C         140.2147  142.5267  166.3779 C.ar    1  UNL1       -0.0020
     28 C         139.7247  143.4405  165.2940 C.ar    1  UNL1        0.0060
     29 C         138.7424  142.9390  164.2774 C.ar    1  UNL1        0.0748
     30 C         138.2500  141.5237  164.3447 C.ar    1  UNL1        0.0233
     31 C         138.7400  140.6099  165.4286 C.ar    1  UNL1       -0.0238
     32 C         138.2477  139.1946  165.4960 C.3     1  UNL1        0.0306
     33 C         137.2894  141.3127  163.2121 C.3     1  UNL1        0.2352
     34 O         137.1881  142.5976  162.4448 O.3     1  UNL1       -0.4404
     35 C         138.0860  143.6027  163.1032 C.2     1  UNL1        0.3413
     36 O         138.2916  145.0223  162.6643 O.2     1  UNL1       -0.2449
@<TRIPOS>BOND
     1    20    21    1
     2    21    19    1
     3    19    11    1
     4    11    12   ar
     5    12    13   ar
     6    13     8    1
     7     8     9    1
     8     8     7    1
     9     7     1    1
    10     1     2    1
    11     2     3    1
    12     3     4    1
    13     4    22    1
    14    22    23    1
    15    23    24    1
    16    23    26    1
    17    26    27   ar
    18    27    28   ar
    19    28    29   ar
    20    29    30   ar
    21    30    31   ar
    22    31    32    1
    23    30    33    1
    24    33    34    1
    25    34    35    1
    26    35    36    2
    27     4     5    1
    28     5     6    1
    29    13    14   ar
    30    14    15   ar
    31    15    16   ar
    32    16    17    1
    33    17    18    3
    34    16    11   ar
    35     6     1    1
    36    31    26   ar
    37    35    29    1
    38     9    10    1
    39    24    25    1
@<TRIPOS>MOLECULE
*****
 36 39 0 0 0
SMALL
GASTEIGER

@<TRIPOS>ATOM
      1 N         141.5755  140.4623  159.9656 N.3     1  UNL1       -0.2679
      2 C         142.7818  141.2291  160.4205 C.3     1  UNL1        0.0897
      3 C         142.6743  142.6986  160.7017 C.3     1  UNL1        0.0897
      4 N         141.3604  143.4012  160.5280 N.3     1  UNL1       -0.2680
      5 C         140.1541  142.6344  160.0732 C.3     1  UNL1        0.0897
      6 C         140.2617  141.1650  159.7920 C.3     1  UNL1        0.0897
      7 C         141.6830  138.9929  159.6844 C.3     1  UNL1        0.1080
      8 C         141.9974  138.0372  160.7971 C.3     1  UNL1        0.1661
      9 O         143.1655  137.1039  160.6764 O.3     1  UNL1       -0.3771
     10 H         143.6070  137.2470  159.8246 H       1  UNL1        0.2109
     11 C         140.9008  138.2799  164.6034 C.ar    1  UNL1        0.1508
     12 C         141.7543  138.3021  163.3701 C.ar    1  UNL1        0.0548
     13 C         141.1439  138.0150  162.0303 C.ar    1  UNL1        0.0901
     14 N         139.6800  137.7056  161.9238 N.ar    1  UNL1       -0.2448
     15 C         138.8265  137.6834  163.1571 C.ar    1  UNL1        0.1118
     16 C         139.4369  137.9705  164.4969 C.ar    1  UNL1        0.1213
     17 C         138.5833  137.9483  165.7302 C.1     1  UNL1        0.1051
     18 N         137.7297  137.9261  166.9634 N.1     1  UNL1       -0.1907
     19 O         141.5111  138.5670  165.9432 O.3     1  UNL1       -0.4747
     20 C         143.9037  137.8445  166.6527 C.3     1  UNL1        0.0512
     21 C         142.9782  138.8604  166.0517 C.3     1  UNL1        0.2056
     22 C         141.2529  144.8707  160.8092 C.3     1  UNL1        0.1064
     23 C         140.6780  145.3451  162.1109 C.3     1  UNL1        0.1483
     24 O         140.1935  146.7582  162.2462 O.3     1  UNL1       -0.3786
     25 H         139.8549  146.8994  163.1442 H       1  UNL1        0.2108
     26 C         140.5875  144.4062  163.2774 C.ar    1  UNL1        0.0015
     27 C         139.2846  143.7383  163.6032 C.ar    1  UNL1       -0.0020
     28 C         139.1942  142.7995  164.7696 C.ar    1  UNL1        0.0060
     29 C         140.4066  142.5287  165.6102 C.ar    1  UNL1        0.0748
     30 C         141.7095  143.1967  165.2844 C.ar    1  UNL1        0.0233
     31 C         141.8000  144.1355  164.1180 C.ar    1  UNL1       -0.0238
     32 C         143.1030  144.8036  163.7922 C.3     1  UNL1        0.0306
     33 C         142.7283  142.7390  166.2858 C.3     1  UNL1        0.2352
     34 O         142.0549  141.7881  167.2304 O.3     1  UNL1       -0.4404
     35 C         140.6201  141.6582  166.8129 C.2     1  UNL1        0.3413
     36 O         139.5811  140.8070  167.4809 O.2     1  UNL1       -0.2449
@<TRIPOS>BOND
     1    20    21    1
     2    21    19    1
     3    19    11    1
     4    11    12   ar
     5    12    13   ar
     6    13     8    1
     7     8     9    1
     8     8     7    1
     9     7     1    1
    10     1     2    1
    11     2     3    1
    12     3     4    1
    13     4    22    1
    14    22    23    1
    15    23    24    1
    16    23    26    1
    17    26    27   ar
    18    27    28   ar
    19    28    29   ar
    20    29    30   ar
    21    30    31   ar
    22    31    32    1
    23    30    33    1
    24    33    34    1
    25    34    35    1
    26    35    36    2
    27     4     5    1
    28     5     6    1
    29    13    14   ar
    30    14    15   ar
    31    15    16   ar
    32    16    17    1
    33    17    18    3
    34    16    11   ar
    35     6     1    1
    36    31    26   ar
    37    35    29    1
    38     9    10    1
    39    24    25    1
