@<TRIPOS>MOLECULE
*****
 30 34 0 0 0
SMALL
GASTEIGER

@<TRIPOS>ATOM
      1 C         137.3328  141.7008  163.0263 C.3     1  UNL1        0.0730
      2 C         139.4765  139.1993  165.0788 C.3     1  UNL1        0.0350
      3 C         139.9787  137.7899  164.9728 C.3     1  UNL1        0.0072
      4 C         139.1349  138.3699  163.8766 C.3     1  UNL1        0.0214
      5 C         138.2903  139.2059  162.9614 C.3     1  UNL1        0.0724
      6 N         138.1099  140.5522  163.5980 N.3     1  UNL1       -0.2724
      7 C         138.8430  140.5480  164.9066 C.3     1  UNL1        0.0761
      8 C         141.3608  140.0710  169.0713 C.ar    1  UNL1        0.1387
      9 C         142.2263  139.7957  167.8775 C.ar    1  UNL1        0.0366
     10 C         141.5982  139.5051  166.5467 C.ar    1  UNL1       -0.0011
     11 C         140.1046  139.4899  166.4096 C.ar    1  UNL1       -0.0213
     12 C         139.2391  139.7652  167.6034 C.ar    1  UNL1       -0.0011
     13 C         139.8672  140.0558  168.9342 C.ar    1  UNL1        0.0366
     14 C         141.7031  141.6586  171.0991 C.3     1  UNL1        0.2525
     15 O         141.9889  140.3616  170.4021 O.3     1  UNL1       -0.4714
     16 C         137.3883  143.0464  163.6867 C.3     1  UNL1        0.0294
     17 C         137.8372  144.2465  162.9069 C.3     1  UNL1        0.0666
     18 S         139.2517  144.7316  163.0251 S.3     1  UNL1       -0.0756
     19 C         140.3085  143.8309  163.5926 C.ar    1  UNL1        0.1933
     20 N         140.8854  143.9106  164.9749 N.ar    1  UNL1       -0.1220
     21 N         141.9074  142.8215  165.1140 N.ar    1  UNL1       -0.1250
     22 C         141.9622  142.0688  163.8177 C.ar    1  UNL1        0.2029
     23 N         140.9740  142.6926  162.8774 N.ar    1  UNL1       -0.2860
     24 C         140.6994  142.2551  161.4692 C.3     1  UNL1        0.1341
     25 C         142.8493  140.8978  163.5149 C.ar    1  UNL1        0.1964
     26 O         142.3991  139.5557  163.0187 O.2     1  UNL1       -0.4283
     27 C         143.6139  138.6917  162.8522 C.ar    1  UNL1        0.2849
     28 N         144.8149  139.4998  163.2455 N.ar    1  UNL1       -0.2085
     29 C         144.3423  140.8632  163.6550 C.ar    1  UNL1        0.1001
     30 C         145.2104  141.9936  164.1226 C.3     1  UNL1        0.0556
@<TRIPOS>BOND
     1    14    15    1
     2    15     8    1
     3     8     9   ar
     4     9    10   ar
     5    10    11   ar
     6    11     2    1
     7     2     3    1
     8     3     4    1
     9     4     5    1
    10     5     6    1
    11     6     1    1
    12     1    16    1
    13    16    17    1
    14    17    18    1
    15    18    19    1
    16    19    20   ar
    17    20    21   ar
    18    21    22   ar
    19    22    25    1
    20    25    26   ar
    21    26    27   ar
    22    27    28   ar
    23    28    29   ar
    24    29    30    1
    25    22    23   ar
    26    23    24    1
    27     6     7    1
    28    11    12   ar
    29    12    13   ar
    30    13     8   ar
    31     4     2    1
    32    23    19   ar
    33     7     2    1
    34    29    25   ar
@<TRIPOS>MOLECULE
*****
 30 34 0 0 0
SMALL
GASTEIGER

@<TRIPOS>ATOM
      1 C         144.6694  142.7801  164.2609 C.3     1  UNL1        0.0730
      2 C         143.0801  139.7106  166.0266 C.3     1  UNL1        0.0350
      3 C         143.0994  138.2141  165.9256 C.3     1  UNL1        0.0072
      4 C         143.9173  139.0403  164.9778 C.3     1  UNL1        0.0214
      5 C         144.6146  140.1086  164.1888 C.3     1  UNL1        0.0724
      6 N         144.2083  141.4391  164.7498 N.3     1  UNL1       -0.2724
      7 C         143.2600  141.1931  165.8857 C.3     1  UNL1        0.0761
      8 C         140.2231  139.9112  169.4974 C.ar    1  UNL1        0.1387
      9 C         141.6985  139.8047  169.7457 C.ar    1  UNL1        0.0366
     10 C         142.6508  139.7378  168.5888 C.ar    1  UNL1       -0.0011
     11 C         142.1278  139.7774  167.1835 C.ar    1  UNL1       -0.0213
     12 C         140.6523  139.8839  166.9352 C.ar    1  UNL1       -0.0011
     13 C         139.7000  139.9508  168.0922 C.ar    1  UNL1        0.0366
     14 C         137.7942  139.8594  170.4182 C.3     1  UNL1        0.2525
     15 O         139.2707  139.9780  170.6544 O.3     1  UNL1       -0.4714
     16 C         144.0027  144.0290  164.7566 C.3     1  UNL1        0.0294
     17 C         143.4659  145.0314  163.7784 C.3     1  UNL1        0.0666
     18 S         142.0123  145.0146  163.4087 S.3     1  UNL1       -0.0756
     19 C         141.1739  143.8094  163.7167 C.ar    1  UNL1        0.1933
     20 N         140.1878  143.6852  164.8401 N.ar    1  UNL1       -0.1220
     21 N         139.5789  142.3160  164.7731 N.ar    1  UNL1       -0.1250
     22 C         140.1887  141.5940  163.6083 C.ar    1  UNL1        0.2029
     23 N         141.1745  142.5170  162.9554 N.ar    1  UNL1       -0.2860
     24 C         142.0136  142.2027  161.7524 C.3     1  UNL1        0.1341
     25 C         139.8690  140.1947  163.1728 C.ar    1  UNL1        0.1964
     26 O         140.6494  138.9624  163.5226 O.2     1  UNL1       -0.4283
     27 C         139.9754  137.7880  162.8771 C.ar    1  UNL1        0.2849
     28 N         138.7784  138.2946  162.1283 N.ar    1  UNL1       -0.2085
     29 C         138.7126  139.7820  162.3111 C.ar    1  UNL1        0.1001
     30 C         137.6730  140.6961  161.7336 C.3     1  UNL1        0.0556
@<TRIPOS>BOND
     1    14    15    1
     2    15     8    1
     3     8     9   ar
     4     9    10   ar
     5    10    11   ar
     6    11     2    1
     7     2     3    1
     8     3     4    1
     9     4     5    1
    10     5     6    1
    11     6     1    1
    12     1    16    1
    13    16    17    1
    14    17    18    1
    15    18    19    1
    16    19    20   ar
    17    20    21   ar
    18    21    22   ar
    19    22    25    1
    20    25    26   ar
    21    26    27   ar
    22    27    28   ar
    23    28    29   ar
    24    29    30    1
    25    22    23   ar
    26    23    24    1
    27     6     7    1
    28    11    12   ar
    29    12    13   ar
    30    13     8   ar
    31     4     2    1
    32    23    19   ar
    33     7     2    1
    34    29    25   ar
@<TRIPOS>MOLECULE
*****
 30 34 0 0 0
SMALL
GASTEIGER

@<TRIPOS>ATOM
      1 C         140.4379  137.4057  162.7832 C.3     1  UNL1        0.0730
      2 C         143.1521  139.4029  164.7093 C.3     1  UNL1        0.0350
      3 C         144.5664  139.8633  164.5153 C.3     1  UNL1        0.0072
      4 C         143.8806  139.0736  163.4402 C.3     1  UNL1        0.0214
      5 C         142.9526  138.2853  162.5642 C.3     1  UNL1        0.0724
      6 N         141.6504  138.1275  163.2919 N.3     1  UNL1       -0.2724
      7 C         141.7737  138.8182  164.6177 C.3     1  UNL1        0.0761
      8 C         142.6349  141.1863  168.8084 C.ar    1  UNL1        0.1387
      9 C         142.6478  139.6964  168.6348 C.ar    1  UNL1        0.0366
     10 C         142.8202  139.1020  167.2685 C.ar    1  UNL1       -0.0011
     11 C         142.9797  139.9974  166.0757 C.ar    1  UNL1       -0.0213
     12 C         142.9668  141.4872  166.2493 C.ar    1  UNL1       -0.0011
     13 C         142.7944  142.0816  167.6156 C.ar    1  UNL1        0.0366
     14 C         143.1059  143.0941  170.5079 C.3     1  UNL1        0.2525
     15 O         142.4625  141.7807  170.1747 O.3     1  UNL1       -0.4714
     16 C         139.0714  137.8167  163.2456 C.3     1  UNL1        0.0294
     17 C         138.0867  138.3823  162.2655 C.3     1  UNL1        0.0666
     18 S         137.9672  139.8676  162.0949 S.3     1  UNL1       -0.0756
     19 C         139.0102  140.7758  162.6758 C.ar    1  UNL1        0.1933
     20 N         138.9809  141.3907  164.0436 N.ar    1  UNL1       -0.1220
     21 N         140.2182  142.2234  164.2040 N.ar    1  UNL1       -0.1250
     22 C         141.0122  142.1230  162.9354 C.ar    1  UNL1        0.2029
     23 N         140.2656  141.2284  161.9908 N.ar    1  UNL1       -0.2860
     24 C         140.6985  140.8523  160.6047 C.3     1  UNL1        0.1341
     25 C         142.3227  142.7987  162.6596 C.ar    1  UNL1        0.1964
     26 O         143.5433  142.1506  162.0763 O.2     1  UNL1       -0.4283
     27 C         144.6177  143.1924  161.9749 C.ar    1  UNL1        0.2849
     28 N         144.0612  144.4844  162.4955 N.ar    1  UNL1       -0.2085
     29 C         142.6428  144.2410  162.9187 C.ar    1  UNL1        0.1001
     30 C         141.7085  145.2611  163.4990 C.3     1  UNL1        0.0556
@<TRIPOS>BOND
     1    14    15    1
     2    15     8    1
     3     8     9   ar
     4     9    10   ar
     5    10    11   ar
     6    11     2    1
     7     2     3    1
     8     3     4    1
     9     4     5    1
    10     5     6    1
    11     6     1    1
    12     1    16    1
    13    16    17    1
    14    17    18    1
    15    18    19    1
    16    19    20   ar
    17    20    21   ar
    18    21    22   ar
    19    22    25    1
    20    25    26   ar
    21    26    27   ar
    22    27    28   ar
    23    28    29   ar
    24    29    30    1
    25    22    23   ar
    26    23    24    1
    27     6     7    1
    28    11    12   ar
    29    12    13   ar
    30    13     8   ar
    31     4     2    1
    32    23    19   ar
    33     7     2    1
    34    29    25   ar
@<TRIPOS>MOLECULE
*****
 30 34 0 0 0
SMALL
GASTEIGER

@<TRIPOS>ATOM
      1 C         140.7661  137.6943  162.2178 C.3     1  UNL1        0.0730
      2 C         143.4121  139.4009  164.4876 C.3     1  UNL1        0.0350
      3 C         144.8672  139.7632  164.4506 C.3     1  UNL1        0.0072
      4 C         144.2361  139.0731  163.2778 C.3     1  UNL1        0.0214
      5 C         143.3453  138.3939  162.2803 C.3     1  UNL1        0.0724
      6 N         141.9706  138.3019  162.8736 N.3     1  UNL1       -0.2724
      7 C         142.0119  138.9243  164.2377 C.3     1  UNL1        0.0761
      8 C         142.6234  141.0409  168.6032 C.ar    1  UNL1        0.1387
      9 C         142.6573  139.5579  168.3806 C.ar    1  UNL1        0.0366
     10 C         142.9202  139.0113  167.0087 C.ar    1  UNL1       -0.0011
     11 C         143.1492  139.9476  165.8594 C.ar    1  UNL1       -0.0213
     12 C         143.1152  141.4305  166.0820 C.ar    1  UNL1       -0.0011
     13 C         142.8523  141.9772  167.4539 C.ar    1  UNL1        0.0366
     14 C         142.8637  142.9504  170.3485 C.3     1  UNL1        0.2525
     15 O         142.3605  141.5875  169.9751 O.3     1  UNL1       -0.4714
     16 C         139.4261  137.7774  162.8866 C.3     1  UNL1        0.0294
     17 C         138.1783  137.8601  162.0583 C.3     1  UNL1        0.0666
     18 S         137.9432  139.0478  161.1729 S.3     1  UNL1       -0.0756
     19 C         137.9321  140.4291  161.7579 C.ar    1  UNL1        0.1933
     20 N         136.9285  140.9642  162.7358 N.ar    1  UNL1       -0.1220
     21 N         137.2987  142.3834  163.0500 N.ar    1  UNL1       -0.1250
     22 C         138.5310  142.7254  162.2663 C.ar    1  UNL1        0.2029
     23 N         138.9225  141.5175  161.4677 N.ar    1  UNL1       -0.2860
     24 C         140.0980  141.4159  160.5415 C.3     1  UNL1        0.1341
     25 C         139.2464  144.0438  162.2789 C.ar    1  UNL1        0.1964
     26 O         139.0839  145.1446  161.2730 O.2     1  UNL1       -0.4283
     27 C         139.9869  146.2740  161.6719 C.ar    1  UNL1        0.2849
     28 N         140.7074  145.8711  162.9244 N.ar    1  UNL1       -0.2085
     29 C         140.2497  144.4928  163.2995 C.ar    1  UNL1        0.1001
     30 C         140.7139  143.7022  164.4868 C.3     1  UNL1        0.0556
@<TRIPOS>BOND
     1    14    15    1
     2    15     8    1
     3     8     9   ar
     4     9    10   ar
     5    10    11   ar
     6    11     2    1
     7     2     3    1
     8     3     4    1
     9     4     5    1
    10     5     6    1
    11     6     1    1
    12     1    16    1
    13    16    17    1
    14    17    18    1
    15    18    19    1
    16    19    20   ar
    17    20    21   ar
    18    21    22   ar
    19    22    25    1
    20    25    26   ar
    21    26    27   ar
    22    27    28   ar
    23    28    29   ar
    24    29    30    1
    25    22    23   ar
    26    23    24    1
    27     6     7    1
    28    11    12   ar
    29    12    13   ar
    30    13     8   ar
    31     4     2    1
    32    23    19   ar
    33     7     2    1
    34    29    25   ar
@<TRIPOS>MOLECULE
*****
 30 34 0 0 0
SMALL
GASTEIGER

@<TRIPOS>ATOM
      1 C         138.5441  138.3919  165.8182 C.3     1  UNL1        0.0730
      2 C         139.9284  141.9836  166.3169 C.3     1  UNL1        0.0350
      3 C         140.5392  142.8181  167.4035 C.3     1  UNL1        0.0072
      4 C         140.1351  141.4009  167.6836 C.3     1  UNL1        0.0214
      5 C         139.6417  139.9846  167.6631 C.3     1  UNL1        0.0724
      6 N         139.1301  139.6918  166.2838 N.3     1  UNL1       -0.2724
      7 C         139.3073  140.9273  165.4518 C.3     1  UNL1        0.0761
      8 C         140.0769  145.1666  163.1395 C.ar    1  UNL1        0.1387
      9 C         138.7558  144.6162  163.5885 C.ar    1  UNL1        0.0366
     10 C         138.7063  143.5551  164.6476 C.ar    1  UNL1       -0.0011
     11 C         139.9779  143.0446  165.2578 C.ar    1  UNL1       -0.0213
     12 C         141.2990  143.5951  164.8088 C.ar    1  UNL1       -0.0011
     13 C         141.3485  144.6561  163.7496 C.ar    1  UNL1        0.0366
     14 C         140.2155  145.8401  160.6341 C.3     1  UNL1        0.2525
     15 O         140.1264  146.2277  162.0803 O.3     1  UNL1       -0.4714
     16 C         139.1895  137.6386  164.6930 C.3     1  UNL1        0.0294
     17 C         138.5297  137.5906  163.3468 C.3     1  UNL1        0.0666
     18 S         139.2894  138.0112  162.1238 S.3     1  UNL1       -0.0756
     19 C         140.1994  139.2024  162.1788 C.ar    1  UNL1        0.1933
     20 N         139.8165  140.6194  161.8700 N.ar    1  UNL1       -0.1220
     21 N         141.0325  141.4784  162.0525 N.ar    1  UNL1       -0.1250
     22 C         142.1670  140.5923  162.4741 C.ar    1  UNL1        0.2029
     23 N         141.6521  139.1856  162.5522 N.ar    1  UNL1       -0.2860
     24 C         142.4498  137.9747  162.9362 C.3     1  UNL1        0.1341
     25 C         143.5700  141.0351  162.7664 C.ar    1  UNL1        0.1964
     26 O         144.2874  140.8846  164.0751 O.2     1  UNL1       -0.4283
     27 C         145.6628  141.4626  163.9189 C.ar    1  UNL1        0.2849
     28 N         145.7953  141.9702  162.5137 N.ar    1  UNL1       -0.2085
     29 C         144.5019  141.7060  161.8014 C.ar    1  UNL1        0.1001
     30 C         144.1945  142.0520  160.3745 C.3     1  UNL1        0.0556
@<TRIPOS>BOND
     1    14    15    1
     2    15     8    1
     3     8     9   ar
     4     9    10   ar
     5    10    11   ar
     6    11     2    1
     7     2     3    1
     8     3     4    1
     9     4     5    1
    10     5     6    1
    11     6     1    1
    12     1    16    1
    13    16    17    1
    14    17    18    1
    15    18    19    1
    16    19    20   ar
    17    20    21   ar
    18    21    22   ar
    19    22    25    1
    20    25    26   ar
    21    26    27   ar
    22    27    28   ar
    23    28    29   ar
    24    29    30    1
    25    22    23   ar
    26    23    24    1
    27     6     7    1
    28    11    12   ar
    29    12    13   ar
    30    13     8   ar
    31     4     2    1
    32    23    19   ar
    33     7     2    1
    34    29    25   ar
@<TRIPOS>MOLECULE
*****
 30 34 0 0 0
SMALL
GASTEIGER

@<TRIPOS>ATOM
      1 C         141.3646  144.7375  162.1310 C.3     1  UNL1        0.0730
      2 C         143.7462  142.4441  164.1642 C.3     1  UNL1        0.0350
      3 C         145.1657  141.9619  164.1140 C.3     1  UNL1        0.0072
      4 C         144.6516  142.8917  163.0551 C.3     1  UNL1        0.0214
      5 C         143.8696  143.8052  162.1585 C.3     1  UNL1        0.0724
      6 N         142.4809  143.9223  162.7134 N.3     1  UNL1       -0.2724
      7 C         142.4047  143.0811  163.9530 C.3     1  UNL1        0.0761
      8 C         142.6272  140.2229  167.9143 C.ar    1  UNL1        0.1387
      9 C         142.7403  139.4869  166.6122 C.ar    1  UNL1        0.0366
     10 C         143.1133  140.2274  165.3622 C.ar    1  UNL1       -0.0011
     11 C         143.3732  141.7037  165.4142 C.ar    1  UNL1       -0.0213
     12 C         143.2601  142.4397  166.7163 C.ar    1  UNL1       -0.0011
     13 C         142.8871  141.6993  167.9664 C.ar    1  UNL1        0.0366
     14 C         142.6158  140.0466  170.5064 C.3     1  UNL1        0.2525
     15 O         142.2541  139.4825  169.1644 O.3     1  UNL1       -0.4714
     16 C         141.3225  145.0060  160.6558 C.3     1  UNL1        0.0294
     17 C         140.1155  144.6138  159.8563 C.3     1  UNL1        0.0666
     18 S         139.6961  143.1753  159.7880 S.3     1  UNL1       -0.0756
     19 C         139.0403  142.5282  160.9718 C.ar    1  UNL1        0.1933
     20 N         137.7069  142.8966  161.5518 N.ar    1  UNL1       -0.1220
     21 N         137.4454  141.9952  162.7218 N.ar    1  UNL1       -0.1250
     22 C         138.6170  141.0697  162.8650 C.ar    1  UNL1        0.2029
     23 N         139.6028  141.3991  161.7834 N.ar    1  UNL1       -0.2860
     24 C         140.9198  140.7188  161.5538 C.3     1  UNL1        0.1341
     25 C         138.7753  140.0022  163.9068 C.ar    1  UNL1        0.1964
     26 O         138.5251  138.5361  163.7119 O.2     1  UNL1       -0.4283
     27 C         138.8067  137.8411  165.0110 C.ar    1  UNL1        0.2849
     28 N         139.2308  138.8777  166.0088 N.ar    1  UNL1       -0.2085
     29 C         139.2114  140.2133  165.3263 C.ar    1  UNL1        0.1001
     30 C         139.5659  141.5291  165.9534 C.3     1  UNL1        0.0556
@<TRIPOS>BOND
     1    14    15    1
     2    15     8    1
     3     8     9   ar
     4     9    10   ar
     5    10    11   ar
     6    11     2    1
     7     2     3    1
     8     3     4    1
     9     4     5    1
    10     5     6    1
    11     6     1    1
    12     1    16    1
    13    16    17    1
    14    17    18    1
    15    18    19    1
    16    19    20   ar
    17    20    21   ar
    18    21    22   ar
    19    22    25    1
    20    25    26   ar
    21    26    27   ar
    22    27    28   ar
    23    28    29   ar
    24    29    30    1
    25    22    23   ar
    26    23    24    1
    27     6     7    1
    28    11    12   ar
    29    12    13   ar
    30    13     8   ar
    31     4     2    1
    32    23    19   ar
    33     7     2    1
    34    29    25   ar
@<TRIPOS>MOLECULE
*****
 30 34 0 0 0
SMALL
GASTEIGER

@<TRIPOS>ATOM
      1 C         141.9763  141.9903  160.4675 C.3     1  UNL1        0.0730
      2 C         144.0143  141.6969  163.7578 C.3     1  UNL1        0.0350
      3 C         145.4000  141.9804  164.2574 C.3     1  UNL1        0.0072
      4 C         145.0441  142.2688  162.8290 C.3     1  UNL1        0.0214
      5 C         144.4060  142.4484  161.4835 C.3     1  UNL1        0.0724
      6 N         142.9818  141.9873  161.5805 N.3     1  UNL1       -0.2724
      7 C         142.7398  141.5229  162.9861 C.3     1  UNL1        0.0761
      8 C         142.4191  140.1258  167.6612 C.ar    1  UNL1        0.1387
      9 C         142.6489  139.1883  166.5132 C.ar    1  UNL1        0.0366
     10 C         143.1806  139.7120  165.2120 C.ar    1  UNL1       -0.0011
     11 C         143.4826  141.1732  165.0589 C.ar    1  UNL1       -0.0213
     12 C         143.2528  142.1108  166.2070 C.ar    1  UNL1       -0.0011
     13 C         142.7211  141.5871  167.5081 C.ar    1  UNL1        0.0366
     14 C         140.5523  140.0633  169.4670 C.3     1  UNL1        0.2525
     15 O         141.8874  139.6022  168.9624 O.3     1  UNL1       -0.4714
     16 C         140.7937  141.0692  160.5227 C.3     1  UNL1        0.0294
     17 C         140.6857  139.9285  159.5548 C.3     1  UNL1        0.0666
     18 S         140.0845  138.6264  159.9942 S.3     1  UNL1       -0.0756
     19 C         140.1246  138.2320  161.4410 C.ar    1  UNL1        0.1933
     20 N         141.1988  137.4221  162.1044 N.ar    1  UNL1       -0.1220
     21 N         140.8357  137.2678  163.5517 N.ar    1  UNL1       -0.1250
     22 C         139.5372  137.9823  163.7825 C.ar    1  UNL1        0.2029
     23 N         139.0977  138.5782  162.4780 N.ar    1  UNL1       -0.2860
     24 C         137.8503  139.3796  162.2505 C.3     1  UNL1        0.1341
     25 C         138.8064  138.0832  165.0886 C.ar    1  UNL1        0.1964
     26 O         138.0579  136.9749  165.7679 O.2     1  UNL1       -0.4283
     27 C         137.4847  137.5168  167.0438 C.ar    1  UNL1        0.2849
     28 N         137.8789  138.9599  167.1529 N.ar    1  UNL1       -0.2085
     29 C         138.6958  139.3100  165.9445 C.ar    1  UNL1        0.1001
     30 C         139.2965  140.6514  165.6447 C.3     1  UNL1        0.0556
@<TRIPOS>BOND
     1    14    15    1
     2    15     8    1
     3     8     9   ar
     4     9    10   ar
     5    10    11   ar
     6    11     2    1
     7     2     3    1
     8     3     4    1
     9     4     5    1
    10     5     6    1
    11     6     1    1
    12     1    16    1
    13    16    17    1
    14    17    18    1
    15    18    19    1
    16    19    20   ar
    17    20    21   ar
    18    21    22   ar
    19    22    25    1
    20    25    26   ar
    21    26    27   ar
    22    27    28   ar
    23    28    29   ar
    24    29    30    1
    25    22    23   ar
    26    23    24    1
    27     6     7    1
    28    11    12   ar
    29    12    13   ar
    30    13     8   ar
    31     4     2    1
    32    23    19   ar
    33     7     2    1
    34    29    25   ar
@<TRIPOS>MOLECULE
*****
 30 34 0 0 0
SMALL
GASTEIGER

@<TRIPOS>ATOM
      1 C         143.7678  144.6840  163.1161 C.3     1  UNL1        0.0730
      2 C         140.3287  143.8620  164.7168 C.3     1  UNL1        0.0350
      3 C         138.9056  144.3299  164.6389 C.3     1  UNL1        0.0072
      4 C         139.9560  144.9779  163.7863 C.3     1  UNL1        0.0214
      5 C         141.1989  145.4217  163.0734 C.3     1  UNL1        0.0724
      6 N         142.3398  144.5800  163.5634 N.3     1  UNL1       -0.2724
      7 C         141.8020  143.6161  164.5790 C.3     1  UNL1        0.0761
      8 C         139.6076  140.6769  167.8128 C.ar    1  UNL1        0.1387
      9 C         140.3069  141.9481  168.1934 C.ar    1  UNL1        0.0366
     10 C         140.5472  143.0098  167.1614 C.ar    1  UNL1       -0.0011
     11 C         140.0883  142.8003  165.7488 C.ar    1  UNL1       -0.0213
     12 C         139.3891  141.5290  165.3682 C.ar    1  UNL1       -0.0011
     13 C         139.1488  140.4673  166.4002 C.ar    1  UNL1        0.0366
     14 C         138.7390  139.9747  170.1585 C.3     1  UNL1        0.2525
     15 O         139.3673  139.6151  168.8447 O.3     1  UNL1       -0.4714
     16 C         144.4732  143.4771  162.5723 C.3     1  UNL1        0.0294
     17 C         145.2096  142.5572  163.5005 C.3     1  UNL1        0.0666
     18 S         145.2830  141.0896  163.1998 S.3     1  UNL1       -0.0756
     19 C         144.1313  140.4031  162.5271 C.ar    1  UNL1        0.1933
     20 N         144.0697  139.9923  161.0858 N.ar    1  UNL1       -0.1220
     21 N         142.7393  139.3423  160.8456 N.ar    1  UNL1       -0.1250
     22 C         141.9788  139.3514  162.1385 C.ar    1  UNL1        0.2029
     23 N         142.8391  140.0071  163.1777 N.ar    1  UNL1       -0.2860
     24 C         142.4716  140.2279  164.6152 C.3     1  UNL1        0.1341
     25 C         140.6000  138.8015  162.3543 C.ar    1  UNL1        0.1964
     26 O         139.3498  139.2606  161.6643 O.2     1  UNL1       -0.4283
     27 C         138.2064  138.4388  162.1815 C.ar    1  UNL1        0.2849
     28 N         138.7501  137.4718  163.1911 N.ar    1  UNL1       -0.2085
     29 C         140.2294  137.6959  163.2978 C.ar    1  UNL1        0.1001
     30 C         141.1726  136.9461  164.1914 C.3     1  UNL1        0.0556
@<TRIPOS>BOND
     1    14    15    1
     2    15     8    1
     3     8     9   ar
     4     9    10   ar
     5    10    11   ar
     6    11     2    1
     7     2     3    1
     8     3     4    1
     9     4     5    1
    10     5     6    1
    11     6     1    1
    12     1    16    1
    13    16    17    1
    14    17    18    1
    15    18    19    1
    16    19    20   ar
    17    20    21   ar
    18    21    22   ar
    19    22    25    1
    20    25    26   ar
    21    26    27   ar
    22    27    28   ar
    23    28    29   ar
    24    29    30    1
    25    22    23   ar
    26    23    24    1
    27     6     7    1
    28    11    12   ar
    29    12    13   ar
    30    13     8   ar
    31     4     2    1
    32    23    19   ar
    33     7     2    1
    34    29    25   ar
@<TRIPOS>MOLECULE
*****
 30 34 0 0 0
SMALL
GASTEIGER

@<TRIPOS>ATOM
      1 C         141.6155  141.4624  168.7024 C.3     1  UNL1        0.0730
      2 C         138.9644  139.3472  166.8148 C.3     1  UNL1        0.0350
      3 C         137.6813  138.6254  167.1027 C.3     1  UNL1        0.0072
      4 C         138.3996  139.3468  168.2044 C.3     1  UNL1        0.0214
      5 C         139.3240  140.1391  169.0807 C.3     1  UNL1        0.0724
      6 N         140.4601  140.6292  168.2326 N.3     1  UNL1       -0.2724
      7 C         140.2378  140.1398  166.8322 C.3     1  UNL1        0.0761
      8 C         139.1023  138.3317  162.4331 C.ar    1  UNL1        0.1387
      9 C         138.3394  139.5357  162.9002 C.ar    1  UNL1        0.0366
     10 C         138.2934  139.8742  164.3608 C.ar    1  UNL1       -0.0011
     11 C         139.0103  139.0087  165.3542 C.ar    1  UNL1       -0.0213
     12 C         139.7732  137.8047  164.8870 C.ar    1  UNL1       -0.0011
     13 C         139.8192  137.4662  163.4265 C.ar    1  UNL1        0.0366
     14 C         139.2656  139.0867  159.9525 C.3     1  UNL1        0.2525
     15 O         139.1483  137.9931  160.9725 O.3     1  UNL1       -0.4714
     16 C         142.2097  142.4995  167.7962 C.3     1  UNL1        0.0294
     17 C         143.3214  142.1289  166.8598 C.3     1  UNL1        0.0666
     18 S         143.4526  142.8261  165.5382 S.3     1  UNL1       -0.0756
     19 C         143.9909  142.0857  164.3498 C.ar    1  UNL1        0.1933
     20 N         145.4159  142.0876  163.8813 N.ar    1  UNL1       -0.1220
     21 N         145.5044  141.2167  162.6633 N.ar    1  UNL1       -0.1250
     22 C         144.1342  140.6766  162.3790 C.ar    1  UNL1        0.2029
     23 N         143.1988  141.2137  163.4213 N.ar    1  UNL1       -0.2860
     24 C         141.7293  140.9289  163.5181 C.3     1  UNL1        0.1341
     25 C         143.7643  139.7603  161.2505 C.ar    1  UNL1        0.1964
     26 O         143.3329  138.3297  161.3816 O.2     1  UNL1       -0.4283
     27 C         143.0628  137.7989  160.0049 C.ar    1  UNL1        0.2849
     28 N         143.3273  138.9015  159.0229 N.ar    1  UNL1       -0.2085
     29 C         143.7609  140.1137  159.7927 C.ar    1  UNL1        0.1001
     30 C         144.1267  141.4455  159.2074 C.3     1  UNL1        0.0556
@<TRIPOS>BOND
     1    14    15    1
     2    15     8    1
     3     8     9   ar
     4     9    10   ar
     5    10    11   ar
     6    11     2    1
     7     2     3    1
     8     3     4    1
     9     4     5    1
    10     5     6    1
    11     6     1    1
    12     1    16    1
    13    16    17    1
    14    17    18    1
    15    18    19    1
    16    19    20   ar
    17    20    21   ar
    18    21    22   ar
    19    22    25    1
    20    25    26   ar
    21    26    27   ar
    22    27    28   ar
    23    28    29   ar
    24    29    30    1
    25    22    23   ar
    26    23    24    1
    27     6     7    1
    28    11    12   ar
    29    12    13   ar
    30    13     8   ar
    31     4     2    1
    32    23    19   ar
    33     7     2    1
    34    29    25   ar
