@<TRIPOS>MOLECULE
*****
 28 32 0 0 0
SMALL
GASTEIGER

@<TRIPOS>ATOM
      1 C         143.2492  139.8013  163.2284 C.3     1  UNL1        0.1019
      2 N         142.9946  139.8361  164.7063 N.3     1  UNL1       -0.2687
      3 C         142.2442  140.9855  165.3112 C.3     1  UNL1        0.0751
      4 C         141.9896  141.0202  166.7889 C.3     1  UNL1        0.0488
      5 C         142.4854  139.9056  167.6618 C.3     1  UNL1        0.1143
      6 C         143.2357  138.7563  167.0569 C.3     1  UNL1        0.0488
      7 C         143.4903  138.7215  165.5791 C.3     1  UNL1        0.0751
      8 O         142.9178  138.8686  168.6557 O.3     1  UNL1       -0.3497
      9 C         142.4533  139.3056  170.0134 C.3     1  UNL1        0.1686
     10 C         141.7338  140.6127  169.8587 C.ar    1  UNL1        0.0055
     11 C         141.0632  141.5132  170.8534 C.ar    1  UNL1       -0.0021
     12 C         140.4125  142.7844  170.3948 C.ar    1  UNL1       -0.0003
     13 C         140.4323  143.1553  168.9415 C.ar    1  UNL1       -0.0003
     14 C         141.1029  142.2549  167.9468 C.ar    1  UNL1       -0.0023
     15 C         141.7537  140.9836  168.4054 C.ar    1  UNL1        0.0005
     16 C         145.8021  141.8234  163.4361 C.3     1  UNL1        0.0537
     17 C         144.5973  142.0113  162.5626 C.ar    1  UNL1        0.0782
     18 N         144.3545  143.1617  161.6311 N.ar    1  UNL1       -0.1684
     19 N         143.0309  142.9432  160.9599 N.ar    1  UNL1       -0.2105
     20 C         142.4558  141.6578  161.4766 C.ar    1  UNL1        0.1004
     21 C         143.4239  141.0819  162.4671 C.ar    1  UNL1        0.0283
     22 C         142.3942  143.8508  159.9495 C.ar    1  UNL1        0.1743
     23 N         142.9441  143.9246  158.5559 N.ar    1  UNL1       -0.2243
     24 C         142.3075  144.8321  157.5454 C.ar    1  UNL1        0.1006
     25 C         141.1209  145.6659  157.9286 C.ar    1  UNL1        0.0217
     26 C         140.5710  145.5921  159.3222 C.ar    1  UNL1        0.0161
     27 C         141.2077  144.6845  160.3326 C.ar    1  UNL1        0.0934
     28 CL        140.6578  144.6107  161.7262 Cl      1  UNL1       -0.0790
@<TRIPOS>BOND
     1    16    17    1
     2    17    18   ar
     3    18    19   ar
     4    19    22    1
     5    22    23   ar
     6    23    24   ar
     7    24    25   ar
     8    25    26   ar
     9    26    27   ar
    10    27    28    1
    11    19    20   ar
    12    20    21   ar
    13    21     1    1
    14     1     2    1
    15     2     3    1
    16     3     4    1
    17     4     5    1
    18     5     6    1
    19     6     7    1
    20     5     8    1
    21     8     9    1
    22     9    10    1
    23    10    11   ar
    24    11    12   ar
    25    12    13   ar
    26    13    14   ar
    27    14    15   ar
    28    21    17   ar
    29     7     2    1
    30    15    10   ar
    31    27    22   ar
    32    15     5    1
@<TRIPOS>MOLECULE
*****
 28 32 0 0 0
SMALL
GASTEIGER

@<TRIPOS>ATOM
      1 C         138.8616  137.7666  163.7179 C.3     1  UNL1        0.1019
      2 N         139.0837  138.4622  165.0282 N.3     1  UNL1       -0.2687
      3 C         140.3009  139.3157  165.2274 C.3     1  UNL1        0.0751
      4 C         140.5229  140.0112  166.5377 C.3     1  UNL1        0.0488
      5 C         139.5278  139.8531  167.6488 C.3     1  UNL1        0.1143
      6 C         138.3105  138.9996  167.4497 C.3     1  UNL1        0.0488
      7 C         138.0885  138.3041  166.1394 C.3     1  UNL1        0.0751
      8 O         138.6249  139.7894  168.8450 O.3     1  UNL1       -0.3497
      9 C         139.2308  140.6314  169.9286 C.3     1  UNL1        0.1686
     10 C         140.5082  141.2155  169.4020 C.ar    1  UNL1        0.0055
     11 C         141.5280  142.1232  170.0234 C.ar    1  UNL1       -0.0021
     12 C         142.7312  142.5499  169.2360 C.ar    1  UNL1       -0.0003
     13 C         142.9147  142.0690  167.8271 C.ar    1  UNL1       -0.0003
     14 C         141.8950  141.1613  167.2056 C.ar    1  UNL1       -0.0023
     15 C         140.6917  140.7346  167.9931 C.ar    1  UNL1        0.0005
     16 C         141.7724  137.6048  162.2514 C.3     1  UNL1        0.0537
     17 C         140.5793  138.3704  161.7609 C.ar    1  UNL1        0.0782
     18 N         140.5148  139.1960  160.5102 N.ar    1  UNL1       -0.1684
     19 N         139.1369  139.7806  160.4113 N.ar    1  UNL1       -0.2105
     20 C         138.3499  139.3163  161.6009 C.ar    1  UNL1        0.1004
     21 C         139.2414  138.4447  162.4350 C.ar    1  UNL1        0.0283
     22 C         138.6343  140.6728  159.3153 C.ar    1  UNL1        0.1743
     23 N         137.6698  140.1401  158.2975 N.ar    1  UNL1       -0.2243
     24 C         137.1672  141.0323  157.2014 C.ar    1  UNL1        0.1006
     25 C         137.6291  142.4573  157.1232 C.ar    1  UNL1        0.0217
     26 C         138.5936  142.9900  158.1410 C.ar    1  UNL1        0.0161
     27 C         139.0962  142.0978  159.2371 C.ar    1  UNL1        0.0934
     28 CL        140.0607  142.6305  160.2549 Cl      1  UNL1       -0.0790
@<TRIPOS>BOND
     1    16    17    1
     2    17    18   ar
     3    18    19   ar
     4    19    22    1
     5    22    23   ar
     6    23    24   ar
     7    24    25   ar
     8    25    26   ar
     9    26    27   ar
    10    27    28    1
    11    19    20   ar
    12    20    21   ar
    13    21     1    1
    14     1     2    1
    15     2     3    1
    16     3     4    1
    17     4     5    1
    18     5     6    1
    19     6     7    1
    20     5     8    1
    21     8     9    1
    22     9    10    1
    23    10    11   ar
    24    11    12   ar
    25    12    13   ar
    26    13    14   ar
    27    14    15   ar
    28    21    17   ar
    29     7     2    1
    30    15    10   ar
    31    27    22   ar
    32    15     5    1
@<TRIPOS>MOLECULE
*****
 28 32 0 0 0
SMALL
GASTEIGER

@<TRIPOS>ATOM
      1 C         138.7804  139.1765  163.5018 C.3     1  UNL1        0.1019
      2 N         139.1166  139.5042  164.9265 N.3     1  UNL1       -0.2687
      3 C         140.3465  140.3027  165.2422 C.3     1  UNL1        0.0751
      4 C         140.6827  140.6303  166.6668 C.3     1  UNL1        0.0488
      5 C         139.7890  140.1595  167.7757 C.3     1  UNL1        0.1143
      6 C         138.5591  139.3611  167.4600 C.3     1  UNL1        0.0488
      7 C         138.2229  139.0334  166.0354 C.3     1  UNL1        0.0751
      8 O         138.9947  139.7593  168.9836 O.3     1  UNL1       -0.3497
      9 C         139.6933  140.2974  170.1970 C.3     1  UNL1        0.1686
     10 C         140.9195  141.0302  169.7391 C.ar    1  UNL1        0.0055
     11 C         141.9898  141.7641  170.4914 C.ar    1  UNL1       -0.0021
     12 C         143.1191  142.4127  169.7473 C.ar    1  UNL1       -0.0003
     13 C         143.1783  142.3275  168.2508 C.ar    1  UNL1       -0.0003
     14 C         142.1080  141.5937  167.4986 C.ar    1  UNL1       -0.0023
     15 C         140.9786  140.9450  168.2427 C.ar    1  UNL1        0.0005
     16 C         140.9525  136.8004  164.0360 C.3     1  UNL1        0.0537
     17 C         140.8596  137.6491  162.8027 C.ar    1  UNL1        0.0782
     18 N         141.7488  137.5545  161.5984 N.ar    1  UNL1       -0.1684
     19 N         141.2999  138.5883  160.6085 N.ar    1  UNL1       -0.2105
     20 C         140.1333  139.3217  161.2011 C.ar    1  UNL1        0.1004
     21 C         139.8611  138.7412  162.5572 C.ar    1  UNL1        0.0283
     22 C         141.9104  138.8438  159.2624 C.ar    1  UNL1        0.1743
     23 N         141.3819  138.1330  158.0520 N.ar    1  UNL1       -0.2243
     24 C         141.9923  138.3884  156.7058 C.ar    1  UNL1        0.1006
     25 C         143.1315  139.3549  156.5702 C.ar    1  UNL1        0.0217
     26 C         143.6601  140.0657  157.7807 C.ar    1  UNL1        0.0161
     27 C         143.0496  139.8102  159.1268 C.ar    1  UNL1        0.0934
     28 CL        143.5782  140.5211  160.3373 Cl      1  UNL1       -0.0790
@<TRIPOS>BOND
     1    16    17    1
     2    17    18   ar
     3    18    19   ar
     4    19    22    1
     5    22    23   ar
     6    23    24   ar
     7    24    25   ar
     8    25    26   ar
     9    26    27   ar
    10    27    28    1
    11    19    20   ar
    12    20    21   ar
    13    21     1    1
    14     1     2    1
    15     2     3    1
    16     3     4    1
    17     4     5    1
    18     5     6    1
    19     6     7    1
    20     5     8    1
    21     8     9    1
    22     9    10    1
    23    10    11   ar
    24    11    12   ar
    25    12    13   ar
    26    13    14   ar
    27    14    15   ar
    28    21    17   ar
    29     7     2    1
    30    15    10   ar
    31    27    22   ar
    32    15     5    1
@<TRIPOS>MOLECULE
*****
 28 32 0 0 0
SMALL
GASTEIGER

@<TRIPOS>ATOM
      1 C         138.1551  139.8629  164.4582 C.3     1  UNL1        0.1019
      2 N         138.6848  140.7422  163.3644 N.3     1  UNL1       -0.2687
      3 C         140.0910  140.5641  162.8737 C.3     1  UNL1        0.0751
      4 C         140.6207  141.4433  161.7799 C.3     1  UNL1        0.0488
      5 C         139.7441  142.5007  161.1769 C.3     1  UNL1        0.1143
      6 C         138.3379  142.6788  161.6676 C.3     1  UNL1        0.0488
      7 C         137.8083  141.7996  162.7613 C.3     1  UNL1        0.0751
      8 O         138.9892  143.5946  160.4815 O.3     1  UNL1       -0.3497
      9 C         139.9003  144.2104  159.4612 C.3     1  UNL1        0.1686
     10 C         141.2183  143.4971  159.5261 C.ar    1  UNL1        0.0055
     11 C         142.4938  143.6732  158.7567 C.ar    1  UNL1       -0.0021
     12 C         143.6728  142.7927  159.0475 C.ar    1  UNL1       -0.0003
     13 C         143.5763  141.7360  160.1078 C.ar    1  UNL1       -0.0003
     14 C         142.3008  141.5599  160.8773 C.ar    1  UNL1       -0.0023
     15 C         141.1218  142.4405  160.5864 C.ar    1  UNL1        0.0005
     16 C         137.3754  137.9640  166.9951 C.3     1  UNL1        0.0537
     17 C         138.3609  139.0947  167.0101 C.ar    1  UNL1        0.0782
     18 N         139.1610  139.5511  168.1940 N.ar    1  UNL1       -0.1684
     19 N         140.0140  140.7060  167.7595 N.ar    1  UNL1       -0.2105
     20 C         139.7409  140.9634  166.3072 C.ar    1  UNL1        0.1004
     21 C         138.7193  139.9675  165.8441 C.ar    1  UNL1        0.0283
     22 C         140.9718  141.4695  168.6254 C.ar    1  UNL1        0.1743
     23 N         140.5510  142.7698  169.2436 N.ar    1  UNL1       -0.2243
     24 C         141.5087  143.5333  170.1095 C.ar    1  UNL1        0.1006
     25 C         142.8874  142.9965  170.3571 C.ar    1  UNL1        0.0217
     26 C         143.3081  141.6963  169.7389 C.ar    1  UNL1        0.0161
     27 C         142.3503  140.9328  168.8730 C.ar    1  UNL1        0.0934
     28 CL        142.7711  139.6325  168.2548 Cl      1  UNL1       -0.0790
@<TRIPOS>BOND
     1    16    17    1
     2    17    18   ar
     3    18    19   ar
     4    19    22    1
     5    22    23   ar
     6    23    24   ar
     7    24    25   ar
     8    25    26   ar
     9    26    27   ar
    10    27    28    1
    11    19    20   ar
    12    20    21   ar
    13    21     1    1
    14     1     2    1
    15     2     3    1
    16     3     4    1
    17     4     5    1
    18     5     6    1
    19     6     7    1
    20     5     8    1
    21     8     9    1
    22     9    10    1
    23    10    11   ar
    24    11    12   ar
    25    12    13   ar
    26    13    14   ar
    27    14    15   ar
    28    21    17   ar
    29     7     2    1
    30    15    10   ar
    31    27    22   ar
    32    15     5    1
@<TRIPOS>MOLECULE
*****
 28 32 0 0 0
SMALL
GASTEIGER

@<TRIPOS>ATOM
      1 C         139.0924  140.0533  163.2020 C.3     1  UNL1        0.1019
      2 N         139.4164  140.1433  164.6639 N.3     1  UNL1       -0.2687
      3 C         140.6385  140.8857  165.1169 C.3     1  UNL1        0.0751
      4 C         140.9624  140.9758  166.5787 C.3     1  UNL1        0.0488
      5 C         140.0643  140.3234  167.5875 C.3     1  UNL1        0.1143
      6 C         138.8422  139.5810  167.1345 C.3     1  UNL1        0.0488
      7 C         138.5182  139.4909  165.6727 C.3     1  UNL1        0.0751
      8 O         139.2643  139.7248  168.7064 O.3     1  UNL1       -0.3497
      9 C         139.9508  140.0593  169.9976 C.3     1  UNL1        0.1686
     10 C         141.1749  140.8646  169.6766 C.ar    1  UNL1        0.0055
     11 C         142.2348  141.4704  170.5482 C.ar    1  UNL1       -0.0021
     12 C         143.3648  142.2393  169.9304 C.ar    1  UNL1       -0.0003
     13 C         143.4350  142.4025  168.4409 C.ar    1  UNL1       -0.0003
     14 C         142.3751  141.7968  167.5693 C.ar    1  UNL1       -0.0023
     15 C         141.2451  141.0278  168.1872 C.ar    1  UNL1        0.0005
     16 C         137.4141  142.7131  164.0728 C.3     1  UNL1        0.0537
     17 C         138.1681  142.5273  162.7895 C.ar    1  UNL1        0.0782
     18 N         138.2830  143.5314  161.6811 N.ar    1  UNL1       -0.1684
     19 N         139.1255  142.9293  160.5958 N.ar    1  UNL1       -0.2105
     20 C         139.5312  141.5531  161.0335 C.ar    1  UNL1        0.1004
     21 C         138.9395  141.3047  162.3892 C.ar    1  UNL1        0.0283
     22 C         139.4971  143.5878  159.3003 C.ar    1  UNL1        0.1743
     23 N         138.8910  143.1088  158.0146 N.ar    1  UNL1       -0.2243
     24 C         139.2625  143.7673  156.7190 C.ar    1  UNL1        0.1006
     25 C         140.2402  144.9049  156.7093 C.ar    1  UNL1        0.0217
     26 C         140.8463  145.3839  157.9950 C.ar    1  UNL1        0.0161
     27 C         140.4748  144.7254  159.2905 C.ar    1  UNL1        0.0934
     28 CL        141.0809  145.2044  160.5763 Cl      1  UNL1       -0.0790
@<TRIPOS>BOND
     1    16    17    1
     2    17    18   ar
     3    18    19   ar
     4    19    22    1
     5    22    23   ar
     6    23    24   ar
     7    24    25   ar
     8    25    26   ar
     9    26    27   ar
    10    27    28    1
    11    19    20   ar
    12    20    21   ar
    13    21     1    1
    14     1     2    1
    15     2     3    1
    16     3     4    1
    17     4     5    1
    18     5     6    1
    19     6     7    1
    20     5     8    1
    21     8     9    1
    22     9    10    1
    23    10    11   ar
    24    11    12   ar
    25    12    13   ar
    26    13    14   ar
    27    14    15   ar
    28    21    17   ar
    29     7     2    1
    30    15    10   ar
    31    27    22   ar
    32    15     5    1
@<TRIPOS>MOLECULE
*****
 28 32 0 0 0
SMALL
GASTEIGER

@<TRIPOS>ATOM
      1 C         138.5215  143.2127  161.4322 C.3     1  UNL1        0.1019
      2 N         138.6059  142.3976  162.6886 N.3     1  UNL1       -0.2687
      3 C         139.4249  142.8866  163.8462 C.3     1  UNL1        0.0751
      4 C         139.5093  142.0715  165.1025 C.3     1  UNL1        0.0488
      5 C         138.7747  140.7674  165.2013 C.3     1  UNL1        0.1143
      6 C         137.9557  140.2784  164.0437 C.3     1  UNL1        0.0488
      7 C         137.8713  141.0935  162.7873 C.3     1  UNL1        0.0751
      8 O         138.0986  139.4508  165.4452 O.3     1  UNL1       -0.3497
      9 C         138.4561  138.9954  166.8290 C.3     1  UNL1        0.1686
     10 C         139.3532  140.0307  167.4404 C.ar    1  UNL1        0.0055
     11 C         140.0161  140.1176  168.7831 C.ar    1  UNL1       -0.0021
     12 C         140.8759  141.2996  169.1199 C.ar    1  UNL1       -0.0003
     13 C         141.0729  142.3948  168.1139 C.ar    1  UNL1       -0.0003
     14 C         140.4099  142.3078  166.7712 C.ar    1  UNL1       -0.0023
     15 C         139.5501  141.1258  166.4344 C.ar    1  UNL1        0.0005
     16 C         139.9895  146.1078  161.7685 C.3     1  UNL1        0.0537
     17 C         140.4510  144.9818  160.8914 C.ar    1  UNL1        0.0782
     18 N         141.6682  144.9889  160.0149 N.ar    1  UNL1       -0.1684
     19 N         141.7457  143.6625  159.3187 N.ar    1  UNL1       -0.2105
     20 C         140.5764  142.8358  159.7648 C.ar    1  UNL1        0.1004
     21 C         139.7762  143.6511  160.7368 C.ar    1  UNL1        0.0283
     22 C         142.8064  143.2376  158.3468 C.ar    1  UNL1        0.1743
     23 N         142.5513  143.3275  156.8714 N.ar    1  UNL1       -0.2243
     24 C         143.6119  142.9025  155.8995 C.ar    1  UNL1        0.1006
     25 C         144.9278  142.3876  156.4032 C.ar    1  UNL1        0.0217
     26 C         145.1829  142.2977  157.8786 C.ar    1  UNL1        0.0161
     27 C         144.1222  142.7227  158.8504 C.ar    1  UNL1        0.0934
     28 CL        144.3773  142.6328  160.3258 Cl      1  UNL1       -0.0790
@<TRIPOS>BOND
     1    16    17    1
     2    17    18   ar
     3    18    19   ar
     4    19    22    1
     5    22    23   ar
     6    23    24   ar
     7    24    25   ar
     8    25    26   ar
     9    26    27   ar
    10    27    28    1
    11    19    20   ar
    12    20    21   ar
    13    21     1    1
    14     1     2    1
    15     2     3    1
    16     3     4    1
    17     4     5    1
    18     5     6    1
    19     6     7    1
    20     5     8    1
    21     8     9    1
    22     9    10    1
    23    10    11   ar
    24    11    12   ar
    25    12    13   ar
    26    13    14   ar
    27    14    15   ar
    28    21    17   ar
    29     7     2    1
    30    15    10   ar
    31    27    22   ar
    32    15     5    1
@<TRIPOS>MOLECULE
*****
 28 32 0 0 0
SMALL
GASTEIGER

@<TRIPOS>ATOM
      1 C         142.9700  137.0778  156.9973 C.3     1  UNL1        0.1019
      2 N         142.7043  135.6460  156.6373 N.3     1  UNL1       -0.2687
      3 C         143.5149  134.5517  157.2660 C.3     1  UNL1        0.0751
      4 C         143.2492  133.1201  156.9060 C.3     1  UNL1        0.0488
      5 C         142.1728  132.7827  155.9173 C.3     1  UNL1        0.1143
      6 C         141.3621  133.8770  155.2886 C.3     1  UNL1        0.0488
      7 C         141.6278  135.3086  155.6486 C.3     1  UNL1        0.0751
      8 O         141.1351  132.2947  154.9502 O.3     1  UNL1       -0.3497
      9 C         141.2191  130.7979  154.8964 C.3     1  UNL1        0.1686
     10 C         142.3087  130.3609  155.8302 C.ar    1  UNL1        0.0055
     11 C         142.8403  129.0046  156.1875 C.ar    1  UNL1       -0.0021
     12 C         143.9611  128.8748  157.1757 C.ar    1  UNL1       -0.0003
     13 C         144.5506  130.1014  157.8067 C.ar    1  UNL1       -0.0003
     14 C         144.0190  131.4577  157.4494 C.ar    1  UNL1       -0.0023
     15 C         142.8981  131.5875  156.4612 C.ar    1  UNL1        0.0005
     16 C         140.6257  139.3404  157.1831 C.3     1  UNL1        0.0537
     17 C         141.3198  138.6926  158.3443 C.ar    1  UNL1        0.0782
     18 N         141.0583  138.9711  159.7949 N.ar    1  UNL1       -0.1684
     19 N         141.9743  138.1032  160.6059 N.ar    1  UNL1       -0.2105
     20 C         142.8018  137.2883  159.6567 C.ar    1  UNL1        0.1004
     21 C         142.3974  137.6526  158.2589 C.ar    1  UNL1        0.0283
     22 C         142.0494  138.0581  162.1034 C.ar    1  UNL1        0.1743
     23 N         141.0605  137.2398  162.8797 N.ar    1  UNL1       -0.2243
     24 C         141.1356  137.1947  164.3771 C.ar    1  UNL1        0.1006
     25 C         142.1997  137.9678  165.0983 C.ar    1  UNL1        0.0217
     26 C         143.1886  138.7860  164.3220 C.ar    1  UNL1        0.0161
     27 C         143.1134  138.8312  162.8246 C.ar    1  UNL1        0.0934
     28 CL        144.1023  139.6494  162.0483 Cl      1  UNL1       -0.0790
@<TRIPOS>BOND
     1    16    17    1
     2    17    18   ar
     3    18    19   ar
     4    19    22    1
     5    22    23   ar
     6    23    24   ar
     7    24    25   ar
     8    25    26   ar
     9    26    27   ar
    10    27    28    1
    11    19    20   ar
    12    20    21   ar
    13    21     1    1
    14     1     2    1
    15     2     3    1
    16     3     4    1
    17     4     5    1
    18     5     6    1
    19     6     7    1
    20     5     8    1
    21     8     9    1
    22     9    10    1
    23    10    11   ar
    24    11    12   ar
    25    12    13   ar
    26    13    14   ar
    27    14    15   ar
    28    21    17   ar
    29     7     2    1
    30    15    10   ar
    31    27    22   ar
    32    15     5    1
@<TRIPOS>MOLECULE
*****
 28 32 0 0 0
SMALL
GASTEIGER

@<TRIPOS>ATOM
      1 C         143.2155  139.1975  163.4715 C.3     1  UNL1        0.1019
      2 N         142.9694  139.4322  164.9325 N.3     1  UNL1       -0.2687
      3 C         142.2014  140.6408  165.3790 C.3     1  UNL1        0.0751
      4 C         141.9553  140.8754  166.8400 C.3     1  UNL1        0.0488
      5 C         142.4772  139.9014  167.8544 C.3     1  UNL1        0.1143
      6 C         143.2452  138.6928  167.4078 C.3     1  UNL1        0.0488
      7 C         143.4913  138.4582  165.9469 C.3     1  UNL1        0.0751
      8 O         142.9350  139.0199  168.9783 O.3     1  UNL1       -0.3497
      9 C         142.4708  139.6324  170.2665 C.3     1  UNL1        0.1686
     10 C         141.7260  140.8926  169.9387 C.ar    1  UNL1        0.0055
     11 C         141.0448  141.9102  170.8049 C.ar    1  UNL1       -0.0021
     12 C         140.3676  143.0939  170.1805 C.ar    1  UNL1       -0.0003
     13 C         140.3715  143.2602  168.6897 C.ar    1  UNL1       -0.0003
     14 C         141.0527  142.2426  167.8234 C.ar    1  UNL1       -0.0023
     15 C         141.7300  141.0588  168.4479 C.ar    1  UNL1        0.0005
     16 C         141.0152  136.8252  163.8966 C.3     1  UNL1        0.0537
     17 C         141.0559  137.7955  162.7534 C.ar    1  UNL1        0.0782
     18 N         140.0923  137.8458  161.6050 N.ar    1  UNL1       -0.1684
     19 N         140.5082  138.9673  160.6998 N.ar    1  UNL1       -0.2105
     20 C         141.7288  139.6101  161.2889 C.ar    1  UNL1        0.1004
     21 C         142.0673  138.8859  162.5581 C.ar    1  UNL1        0.0283
     22 C         139.8237  139.3745  159.4287 C.ar    1  UNL1        0.1743
     23 N         140.3387  138.8825  158.1086 N.ar    1  UNL1       -0.2243
     24 C         139.6543  139.2897  156.8375 C.ar    1  UNL1        0.1006
     25 C         138.4546  140.1889  156.8865 C.ar    1  UNL1        0.0217
     26 C         137.9395  140.6809  158.2066 C.ar    1  UNL1        0.0161
     27 C         138.6241  140.2737  159.4777 C.ar    1  UNL1        0.0934
     28 CL        138.1090  140.7657  160.7978 Cl      1  UNL1       -0.0790
@<TRIPOS>BOND
     1    16    17    1
     2    17    18   ar
     3    18    19   ar
     4    19    22    1
     5    22    23   ar
     6    23    24   ar
     7    24    25   ar
     8    25    26   ar
     9    26    27   ar
    10    27    28    1
    11    19    20   ar
    12    20    21   ar
    13    21     1    1
    14     1     2    1
    15     2     3    1
    16     3     4    1
    17     4     5    1
    18     5     6    1
    19     6     7    1
    20     5     8    1
    21     8     9    1
    22     9    10    1
    23    10    11   ar
    24    11    12   ar
    25    12    13   ar
    26    13    14   ar
    27    14    15   ar
    28    21    17   ar
    29     7     2    1
    30    15    10   ar
    31    27    22   ar
    32    15     5    1
@<TRIPOS>MOLECULE
*****
 28 32 0 0 0
SMALL
GASTEIGER

@<TRIPOS>ATOM
      1 C         143.6859  138.2517  162.2233 C.3     1  UNL1        0.1019
      2 N         142.5842  138.4907  163.2129 N.3     1  UNL1       -0.2687
      3 C         142.9102  138.9656  164.5978 C.3     1  UNL1        0.0751
      4 C         141.8085  139.2047  165.5873 C.3     1  UNL1        0.0488
      5 C         140.3810  138.9688  165.1919 C.3     1  UNL1        0.1143
      6 C         140.0550  138.4939  163.8069 C.3     1  UNL1        0.0488
      7 C         141.1567  138.2549  162.8174 C.3     1  UNL1        0.0751
      8 O         138.9144  138.7774  164.9419 O.3     1  UNL1       -0.3497
      9 C         138.1794  139.1316  166.2008 C.3     1  UNL1        0.1686
     10 C         139.1919  139.5419  167.2287 C.ar    1  UNL1        0.0055
     11 C         139.0507  139.9942  168.6519 C.ar    1  UNL1       -0.0021
     12 C         140.2699  140.3458  169.4516 C.ar    1  UNL1       -0.0003
     13 C         141.6306  140.2453  168.8282 C.ar    1  UNL1       -0.0003
     14 C         141.7718  139.7930  167.4050 C.ar    1  UNL1       -0.0023
     15 C         140.5524  139.4414  166.6052 C.ar    1  UNL1        0.0005
     16 C         143.7367  141.0422  160.5321 C.3     1  UNL1        0.0537
     17 C         143.4426  139.6800  159.9770 C.ar    1  UNL1        0.0782
     18 N         143.1203  139.3614  158.5471 N.ar    1  UNL1       -0.1684
     19 N         142.8977  137.8818  158.4408 N.ar    1  UNL1       -0.2105
     20 C         143.0825  137.2860  159.8050 C.ar    1  UNL1        0.1004
     21 C         143.4193  138.3974  160.7544 C.ar    1  UNL1        0.0283
     22 C         142.5511  137.1300  157.1899 C.ar    1  UNL1        0.1743
     23 N         143.6184  136.3894  156.4400 N.ar    1  UNL1       -0.2243
     24 C         143.2720  135.6376  155.1891 C.ar    1  UNL1        0.1006
     25 C         141.8581  135.6264  154.6881 C.ar    1  UNL1        0.0217
     26 C         140.7908  136.3669  155.4381 C.ar    1  UNL1        0.0161
     27 C         141.1373  137.1187  156.6890 C.ar    1  UNL1        0.0934
     28 CL        140.0701  137.8593  157.4390 Cl      1  UNL1       -0.0790
@<TRIPOS>BOND
     1    16    17    1
     2    17    18   ar
     3    18    19   ar
     4    19    22    1
     5    22    23   ar
     6    23    24   ar
     7    24    25   ar
     8    25    26   ar
     9    26    27   ar
    10    27    28    1
    11    19    20   ar
    12    20    21   ar
    13    21     1    1
    14     1     2    1
    15     2     3    1
    16     3     4    1
    17     4     5    1
    18     5     6    1
    19     6     7    1
    20     5     8    1
    21     8     9    1
    22     9    10    1
    23    10    11   ar
    24    11    12   ar
    25    12    13   ar
    26    13    14   ar
    27    14    15   ar
    28    21    17   ar
    29     7     2    1
    30    15    10   ar
    31    27    22   ar
    32    15     5    1
