@<TRIPOS>MOLECULE
*****
 28 30 0 0 0
SMALL
GASTEIGER

@<TRIPOS>ATOM
      1 C         139.7595  141.2908  166.4472 C.2     1  UNL1       -0.0077
      2 C         140.0232  141.7496  167.8507 C.2     1  UNL1       -0.0414
      3 C         139.9388  140.7741  168.9870 C.3     1  UNL1        0.0391
      4 C         140.2025  141.2330  170.3906 C.3     1  UNL1        0.0730
      5 N         140.5507  142.6673  170.6578 N.3     1  UNL1       -0.2969
      6 C         140.6351  143.6428  169.5214 C.3     1  UNL1        0.0730
      7 C         140.3714  143.1840  168.1179 C.3     1  UNL1        0.0391
      8 H         141.4623  142.6688  171.1154 H       1  UNL1        0.1233
      9 C         139.4114  139.8564  166.1800 C.ar    1  UNL1        0.0016
     10 C         138.1624  139.2663  166.7649 C.ar    1  UNL1        0.0001
     11 C         137.8143  137.8319  166.4977 C.ar    1  UNL1        0.0023
     12 C         138.7150  136.9877  165.6457 C.ar    1  UNL1        0.0296
     13 C         139.9639  137.5778  165.0609 C.ar    1  UNL1        0.1401
     14 F         140.8646  136.7335  164.2088 F       1  UNL1       -0.2042
     15 C         140.3121  139.0122  165.3280 C.ar    1  UNL1        0.0296
     16 C         140.0128  144.2173  163.0382 C.ar    1  UNL1        0.0536
     17 C         141.2621  143.5920  163.5843 C.ar    1  UNL1        0.0045
     18 C         141.1776  142.6165  164.7206 C.ar    1  UNL1        0.0001
     19 C         139.8439  142.2663  165.3109 C.ar    1  UNL1       -0.0006
     20 C         138.5946  142.8915  164.7647 C.ar    1  UNL1        0.0001
     21 C         138.6790  143.8670  163.6284 C.ar    1  UNL1        0.0045
     22 N         140.1464  144.6946  160.4878 N.am    1  UNL1       -0.2761
     23 C         140.0972  145.1928  161.9018 C.2     1  UNL1        0.2490
     24 O         140.1324  146.6664  162.1795 O.2     1  UNL1       -0.2699
     25 C         141.3834  145.6077  158.3935 C.3     1  UNL1        0.0233
     26 C         140.2308  145.6701  159.3515 C.3     1  UNL1        0.0938
     27 C         140.1111  143.2209  160.2101 C.3     1  UNL1        0.0938
     28 C         138.7980  142.5308  159.9878 C.3     1  UNL1        0.0233
@<TRIPOS>BOND
     1    25    26    1
     2    26    22    1
     3    22    27    1
     4    27    28    1
     5    22    23   am
     6    23    24    2
     7    23    16    1
     8    16    17   ar
     9    17    18   ar
    10    18    19   ar
    11    19     1    1
    12     1     2    2
    13     2     3    1
    14     3     4    1
    15     4     5    1
    16     5     6    1
    17     6     7    1
    18     1     9    1
    19     9    10   ar
    20    10    11   ar
    21    11    12   ar
    22    12    13   ar
    23    13    14    1
    24    13    15   ar
    25    19    20   ar
    26    20    21   ar
    27    21    16   ar
    28     7     2    1
    29    15     9   ar
    30     5     8    1
@<TRIPOS>MOLECULE
*****
 28 30 0 0 0
SMALL
GASTEIGER

@<TRIPOS>ATOM
      1 C         139.7655  141.2872  166.5820 C.2     1  UNL1       -0.0077
      2 C         140.0884  141.7308  167.9780 C.2     1  UNL1       -0.0414
      3 C         139.9202  140.7790  169.1251 C.3     1  UNL1        0.0391
      4 C         140.2430  141.2227  170.5213 C.3     1  UNL1        0.0730
      5 N         140.7340  142.6180  170.7702 N.3     1  UNL1       -0.2969
      6 C         140.9022  143.5697  169.6230 C.3     1  UNL1        0.0730
      7 C         140.5794  143.1261  168.2270 C.3     1  UNL1        0.0391
      8 H         141.6462  142.5335  171.2188 H       1  UNL1        0.1233
      9 C         139.2745  139.8919  166.3331 C.ar    1  UNL1        0.0016
     10 C         139.9412  139.0357  165.2974 C.ar    1  UNL1        0.0001
     11 C         139.4502  137.6405  165.0485 C.ar    1  UNL1        0.0023
     12 C         138.2925  137.1012  165.8352 C.ar    1  UNL1        0.0296
     13 C         137.6258  137.9573  166.8708 C.ar    1  UNL1        0.1401
     14 F         136.4681  137.4181  167.6576 F       1  UNL1       -0.2042
     15 C         138.1168  139.3527  167.1198 C.ar    1  UNL1        0.0296
     16 C         140.2701  144.1424  163.1406 C.ar    1  UNL1        0.0536
     17 C         141.4724  143.6570  163.8948 C.ar    1  UNL1        0.0045
     18 C         141.3042  142.7052  165.0420 C.ar    1  UNL1        0.0001
     19 C         139.9337  142.2389  165.4348 C.ar    1  UNL1       -0.0006
     20 C         138.7315  142.7244  164.6806 C.ar    1  UNL1        0.0001
     21 C         138.8997  143.6761  163.5334 C.ar    1  UNL1        0.0045
     22 N         140.9030  144.5873  160.6604 N.am    1  UNL1       -0.2761
     23 C         140.4383  145.0941  161.9934 C.2     1  UNL1        0.2490
     24 O         140.1418  146.5527  162.1794 O.2     1  UNL1       -0.2699
     25 C         140.2679  145.3527  158.2602 C.3     1  UNL1        0.0233
     26 C         141.0712  145.5390  159.5132 C.3     1  UNL1        0.0938
     27 C         141.1996  143.1286  160.4744 C.3     1  UNL1        0.0938
     28 C         142.6202  142.6475  160.4642 C.3     1  UNL1        0.0233
@<TRIPOS>BOND
     1    25    26    1
     2    26    22    1
     3    22    27    1
     4    27    28    1
     5    22    23   am
     6    23    24    2
     7    23    16    1
     8    16    17   ar
     9    17    18   ar
    10    18    19   ar
    11    19     1    1
    12     1     2    2
    13     2     3    1
    14     3     4    1
    15     4     5    1
    16     5     6    1
    17     6     7    1
    18     1     9    1
    19     9    10   ar
    20    10    11   ar
    21    11    12   ar
    22    12    13   ar
    23    13    14    1
    24    13    15   ar
    25    19    20   ar
    26    20    21   ar
    27    21    16   ar
    28     7     2    1
    29    15     9   ar
    30     5     8    1
@<TRIPOS>MOLECULE
*****
 28 30 0 0 0
SMALL
GASTEIGER

@<TRIPOS>ATOM
      1 C         140.9436  141.5186  166.6598 C.2     1  UNL1       -0.0077
      2 C         139.8298  140.5144  166.6926 C.2     1  UNL1       -0.0414
      3 C         139.2135  140.1206  168.0022 C.3     1  UNL1        0.0391
      4 C         138.0996  139.1164  168.0350 C.3     1  UNL1        0.0730
      5 N         137.6021  138.5061  166.7583 N.3     1  UNL1       -0.2969
      6 C         138.2185  138.9000  165.4487 C.3     1  UNL1        0.0730
      7 C         139.3323  139.9041  165.4158 C.3     1  UNL1        0.0391
      8 H         136.6083  138.7267  166.6942 H       1  UNL1        0.1233
      9 C         141.4411  142.1288  167.9365 C.ar    1  UNL1        0.0016
     10 C         140.5360  143.0041  168.7519 C.ar    1  UNL1        0.0001
     11 C         141.0335  143.6144  170.0286 C.ar    1  UNL1        0.0023
     12 C         142.4360  143.3494  170.4900 C.ar    1  UNL1        0.0296
     13 C         143.3410  142.4742  169.6746 C.ar    1  UNL1        0.1401
     14 F         144.7434  142.2092  170.1360 F       1  UNL1       -0.2042
     15 C         142.8435  141.8639  168.3978 C.ar    1  UNL1        0.0296
     16 C         142.7926  142.7002  162.7310 C.ar    1  UNL1        0.0536
     17 C         141.7467  143.5721  163.3600 C.ar    1  UNL1        0.0045
     18 C         141.1303  143.1782  164.6696 C.ar    1  UNL1        0.0001
     19 C         141.5599  141.9124  165.3502 C.ar    1  UNL1       -0.0006
     20 C         142.6059  141.0405  164.7211 C.ar    1  UNL1        0.0001
     21 C         143.2222  141.4344  163.4116 C.ar    1  UNL1        0.0045
     22 N         142.7233  142.7433  160.1342 N.am    1  UNL1       -0.2761
     23 C         143.4089  143.0940  161.4214 C.2     1  UNL1        0.2490
     24 O         144.7109  143.8386  161.3990 O.2     1  UNL1       -0.2699
     25 C         144.4518  142.3163  158.2421 C.3     1  UNL1        0.0233
     26 C         143.3397  143.1372  158.8247 C.3     1  UNL1        0.0938
     27 C         141.4213  141.9987  160.1566 C.3     1  UNL1        0.0938
     28 C         141.4111  140.5025  160.0516 C.3     1  UNL1        0.0233
@<TRIPOS>BOND
     1    25    26    1
     2    26    22    1
     3    22    27    1
     4    27    28    1
     5    22    23   am
     6    23    24    2
     7    23    16    1
     8    16    17   ar
     9    17    18   ar
    10    18    19   ar
    11    19     1    1
    12     1     2    2
    13     2     3    1
    14     3     4    1
    15     4     5    1
    16     5     6    1
    17     6     7    1
    18     1     9    1
    19     9    10   ar
    20    10    11   ar
    21    11    12   ar
    22    12    13   ar
    23    13    14    1
    24    13    15   ar
    25    19    20   ar
    26    20    21   ar
    27    21    16   ar
    28     7     2    1
    29    15     9   ar
    30     5     8    1
@<TRIPOS>MOLECULE
*****
 28 30 0 0 0
SMALL
GASTEIGER

@<TRIPOS>ATOM
      1 C         141.0364  140.8027  166.8958 C.2     1  UNL1       -0.0077
      2 C         139.8159  139.9422  167.0366 C.2     1  UNL1       -0.0414
      3 C         139.0869  139.8831  168.3462 C.3     1  UNL1        0.0391
      4 C         137.8663  139.0225  168.4870 C.3     1  UNL1        0.0730
      5 N         137.3748  138.2211  167.3183 N.3     1  UNL1       -0.2969
      6 C         138.1039  138.2801  166.0087 C.3     1  UNL1        0.0730
      7 C         139.3243  139.1407  165.8678 C.3     1  UNL1        0.0391
      8 H         136.4176  138.5225  167.1362 H       1  UNL1        0.1233
      9 C         141.5278  141.6042  168.0646 C.ar    1  UNL1        0.0016
     10 C         142.8035  141.2201  168.7541 C.ar    1  UNL1        0.0001
     11 C         143.2950  142.0216  169.9228 C.ar    1  UNL1        0.0023
     12 C         142.5109  143.2071  170.4022 C.ar    1  UNL1        0.0296
     13 C         141.2353  143.5911  169.7128 C.ar    1  UNL1        0.1401
     14 F         140.4512  144.7766  170.1921 F       1  UNL1       -0.2042
     15 C         140.7437  142.7897  168.5439 C.ar    1  UNL1        0.0296
     16 C         143.2234  140.9799  162.9670 C.ar    1  UNL1        0.0536
     17 C         143.5548  139.9076  163.9622 C.ar    1  UNL1        0.0045
     18 C         142.8258  139.8486  165.2718 C.ar    1  UNL1        0.0001
     19 C         141.7654  140.8618  165.5862 C.ar    1  UNL1       -0.0006
     20 C         141.4340  141.9340  164.5911 C.ar    1  UNL1        0.0001
     21 C         142.1630  141.9931  163.2815 C.ar    1  UNL1        0.0045
     22 N         143.3928  140.3379  160.4552 N.am    1  UNL1       -0.2761
     23 C         143.9524  141.0389  161.6574 C.2     1  UNL1        0.2490
     24 O         145.2411  141.7990  161.5500 O.2     1  UNL1       -0.2699
     25 C         143.4073  140.0498  157.8732 C.3     1  UNL1        0.0233
     26 C         144.1218  140.3970  159.1456 C.3     1  UNL1        0.0938
     27 C         142.1040  139.5778  160.5626 C.3     1  UNL1        0.0938
     28 C         142.1215  138.1149  160.8939 C.3     1  UNL1        0.0233
@<TRIPOS>BOND
     1    25    26    1
     2    26    22    1
     3    22    27    1
     4    27    28    1
     5    22    23   am
     6    23    24    2
     7    23    16    1
     8    16    17   ar
     9    17    18   ar
    10    18    19   ar
    11    19     1    1
    12     1     2    2
    13     2     3    1
    14     3     4    1
    15     4     5    1
    16     5     6    1
    17     6     7    1
    18     1     9    1
    19     9    10   ar
    20    10    11   ar
    21    11    12   ar
    22    12    13   ar
    23    13    14    1
    24    13    15   ar
    25    19    20   ar
    26    20    21   ar
    27    21    16   ar
    28     7     2    1
    29    15     9   ar
    30     5     8    1
@<TRIPOS>MOLECULE
*****
 28 30 0 0 0
SMALL
GASTEIGER

@<TRIPOS>ATOM
      1 C         141.3222  141.5204  166.5110 C.2     1  UNL1       -0.0077
      2 C         142.2535  140.3513  166.3851 C.2     1  UNL1       -0.0414
      3 C         142.5864  139.5243  167.5914 C.3     1  UNL1        0.0391
      4 C         143.5178  138.3552  167.4654 C.3     1  UNL1        0.0730
      5 N         144.1161  138.0130  166.1332 N.3     1  UNL1       -0.2969
      6 C         143.7831  138.8400  164.9268 C.3     1  UNL1        0.0730
      7 C         142.8519  140.0091  165.0527 C.3     1  UNL1        0.0391
      8 H         143.8344  137.0560  165.9209 H       1  UNL1        0.1233
      9 C         140.7239  141.8626  167.8432 C.ar    1  UNL1        0.0016
     10 C         139.9511  140.8279  168.6063 C.ar    1  UNL1        0.0001
     11 C         139.3528  141.1700  169.9386 C.ar    1  UNL1        0.0023
     12 C         139.5273  142.5468  170.5078 C.ar    1  UNL1        0.0296
     13 C         140.3001  143.5814  169.7448 C.ar    1  UNL1        0.1401
     14 F         140.4745  144.9582  170.3140 F       1  UNL1       -0.2042
     15 C         140.8984  143.2393  168.4125 C.ar    1  UNL1        0.0296
     16 C         140.3234  144.0014  162.8920 C.ar    1  UNL1        0.0536
     17 C         139.3989  142.9032  163.3269 C.ar    1  UNL1        0.0045
     18 C         139.7318  142.0762  164.5332 C.ar    1  UNL1        0.0001
     19 C         140.9893  142.3474  165.3046 C.ar    1  UNL1       -0.0006
     20 C         141.9138  143.4456  164.8697 C.ar    1  UNL1        0.0001
     21 C         141.5809  144.2726  163.6634 C.ar    1  UNL1        0.0045
     22 N         140.5811  144.4804  160.3515 N.am    1  UNL1       -0.2761
     23 C         139.9904  144.8284  161.6856 C.2     1  UNL1        0.2490
     24 O         139.0668  146.0033  161.8135 O.2     1  UNL1       -0.2699
     25 C         141.3265  145.6830  158.1724 C.3     1  UNL1        0.0233
     26 C         140.2481  145.3074  159.1452 C.3     1  UNL1        0.0938
     27 C         141.5047  143.3054  160.2236 C.3     1  UNL1        0.0938
     28 C         140.9507  141.9459  159.9156 C.3     1  UNL1        0.0233
@<TRIPOS>BOND
     1    25    26    1
     2    26    22    1
     3    22    27    1
     4    27    28    1
     5    22    23   am
     6    23    24    2
     7    23    16    1
     8    16    17   ar
     9    17    18   ar
    10    18    19   ar
    11    19     1    1
    12     1     2    2
    13     2     3    1
    14     3     4    1
    15     4     5    1
    16     5     6    1
    17     6     7    1
    18     1     9    1
    19     9    10   ar
    20    10    11   ar
    21    11    12   ar
    22    12    13   ar
    23    13    14    1
    24    13    15   ar
    25    19    20   ar
    26    20    21   ar
    27    21    16   ar
    28     7     2    1
    29    15     9   ar
    30     5     8    1
@<TRIPOS>MOLECULE
*****
 28 30 0 0 0
SMALL
GASTEIGER

@<TRIPOS>ATOM
      1 C         141.0676  140.9367  167.1960 C.2     1  UNL1       -0.0077
      2 C         141.4632  141.3872  168.5710 C.2     1  UNL1       -0.0414
      3 C         140.7411  140.8525  169.7721 C.3     1  UNL1        0.0391
      4 C         141.1367  141.3030  171.1471 C.3     1  UNL1        0.0730
      5 N         142.2543  142.2882  171.3210 N.3     1  UNL1       -0.2969
      6 C         142.9764  142.8229  170.1199 C.3     1  UNL1        0.0730
      7 C         142.5808  142.3725  168.7449 C.3     1  UNL1        0.0391
      8 H         142.9551  141.8376  171.9094 H       1  UNL1        0.1233
      9 C         139.9500  139.9515  167.0221 C.ar    1  UNL1        0.0016
     10 C         138.8908  139.8251  168.0767 C.ar    1  UNL1        0.0001
     11 C         137.7731  138.8399  167.9028 C.ar    1  UNL1        0.0023
     12 C         137.7147  137.9811  166.6744 C.ar    1  UNL1        0.0296
     13 C         138.7739  138.1075  165.6199 C.ar    1  UNL1        0.1401
     14 F         138.7155  137.2486  164.3915 F       1  UNL1       -0.2042
     15 C         139.8916  139.0927  165.7937 C.ar    1  UNL1        0.0296
     16 C         143.2339  142.5410  163.5927 C.ar    1  UNL1        0.0536
     17 C         143.8770  141.4899  164.4480 C.ar    1  UNL1        0.0045
     18 C         143.1549  140.9551  165.6491 C.ar    1  UNL1        0.0001
     19 C         141.7897  141.4715  165.9949 C.ar    1  UNL1       -0.0006
     20 C         141.1467  142.5226  165.1396 C.ar    1  UNL1        0.0001
     21 C         141.8687  143.0574  163.9385 C.ar    1  UNL1        0.0045
     22 N         144.0703  142.2397  161.1515 N.am    1  UNL1       -0.2761
     23 C         143.9560  143.0757  162.3916 C.2     1  UNL1        0.2490
     24 O         144.5638  144.4465  162.4306 O.2     1  UNL1       -0.2699
     25 C         144.3650  142.3616  158.5730 C.3     1  UNL1        0.0233
     26 C         144.7924  142.7745  159.9504 C.3     1  UNL1        0.0938
     27 C         143.4625  140.8689  161.1124 C.3     1  UNL1        0.0938
     28 C         142.0000  140.7049  160.8223 C.3     1  UNL1        0.0233
@<TRIPOS>BOND
     1    25    26    1
     2    26    22    1
     3    22    27    1
     4    27    28    1
     5    22    23   am
     6    23    24    2
     7    23    16    1
     8    16    17   ar
     9    17    18   ar
    10    18    19   ar
    11    19     1    1
    12     1     2    2
    13     2     3    1
    14     3     4    1
    15     4     5    1
    16     5     6    1
    17     6     7    1
    18     1     9    1
    19     9    10   ar
    20    10    11   ar
    21    11    12   ar
    22    12    13   ar
    23    13    14    1
    24    13    15   ar
    25    19    20   ar
    26    20    21   ar
    27    21    16   ar
    28     7     2    1
    29    15     9   ar
    30     5     8    1
@<TRIPOS>MOLECULE
*****
 28 30 0 0 0
SMALL
GASTEIGER

@<TRIPOS>ATOM
      1 C         140.0841  142.0623  162.6769 C.2     1  UNL1       -0.0077
      2 C         139.1514  140.9839  162.2111 C.2     1  UNL1       -0.0414
      3 C         138.5798  141.0338  160.8251 C.3     1  UNL1        0.0391
      4 C         137.6470  139.9553  160.3594 C.3     1  UNL1        0.0730
      5 N         137.2858  138.8271  161.2795 N.3     1  UNL1       -0.2969
      6 C         137.8574  138.7773  162.6654 C.3     1  UNL1        0.0730
      7 C         138.7902  139.8557  163.1312 C.3     1  UNL1        0.0391
      8 H         137.5683  137.9650  160.8133 H       1  UNL1        0.1233
      9 C         140.4453  143.1905  161.7568 C.ar    1  UNL1        0.0016
     10 C         139.7365  144.5076  161.8708 C.ar    1  UNL1        0.0001
     11 C         140.0977  145.6358  160.9507 C.ar    1  UNL1        0.0023
     12 C         141.1676  145.4470  159.9165 C.ar    1  UNL1        0.0296
     13 C         141.8764  144.1300  159.8024 C.ar    1  UNL1        0.1401
     14 F         142.9464  143.9412  158.7682 F       1  UNL1       -0.2042
     15 C         141.5153  143.0017  160.7226 C.ar    1  UNL1        0.0296
     16 C         141.7989  141.9128  166.8347 C.ar    1  UNL1        0.0536
     17 C         142.4612  141.1549  165.7226 C.ar    1  UNL1        0.0045
     18 C         141.8896  141.2047  164.3366 C.ar    1  UNL1        0.0001
     19 C         140.6557  142.0125  164.0628 C.ar    1  UNL1       -0.0006
     20 C         139.9935  142.7705  165.1749 C.ar    1  UNL1        0.0001
     21 C         140.5651  142.7206  166.5609 C.ar    1  UNL1        0.0045
     22 N         141.7374  140.9886  169.2620 N.am    1  UNL1       -0.2761
     23 C         142.3705  141.8630  168.2206 C.2     1  UNL1        0.2490
     24 O         143.5752  142.6875  168.5651 O.2     1  UNL1       -0.2699
     25 C         143.2996  139.8731  171.0128 C.3     1  UNL1        0.0233
     26 C         142.3090  140.9388  170.6480 C.3     1  UNL1        0.0938
     27 C         140.5326  140.1640  168.9175 C.3     1  UNL1        0.0938
     28 C         139.2282  140.4143  169.6146 C.3     1  UNL1        0.0233
@<TRIPOS>BOND
     1    25    26    1
     2    26    22    1
     3    22    27    1
     4    27    28    1
     5    22    23   am
     6    23    24    2
     7    23    16    1
     8    16    17   ar
     9    17    18   ar
    10    18    19   ar
    11    19     1    1
    12     1     2    2
    13     2     3    1
    14     3     4    1
    15     4     5    1
    16     5     6    1
    17     6     7    1
    18     1     9    1
    19     9    10   ar
    20    10    11   ar
    21    11    12   ar
    22    12    13   ar
    23    13    14    1
    24    13    15   ar
    25    19    20   ar
    26    20    21   ar
    27    21    16   ar
    28     7     2    1
    29    15     9   ar
    30     5     8    1
@<TRIPOS>MOLECULE
*****
 28 30 0 0 0
SMALL
GASTEIGER

@<TRIPOS>ATOM
      1 C         140.8478  142.1335  162.3300 C.2     1  UNL1       -0.0077
      2 C         140.5534  143.3487  161.5015 C.2     1  UNL1       -0.0414
      3 C         140.6420  143.2763  160.0059 C.3     1  UNL1        0.0391
      4 C         140.3475  144.4917  159.1774 C.3     1  UNL1        0.0730
      5 N         139.9646  145.7794  159.8446 N.3     1  UNL1       -0.2969
      6 C         139.8760  145.8518  161.3402 C.3     1  UNL1        0.0730
      7 C         140.1703  144.6365  162.1687 C.3     1  UNL1        0.0391
      8 H         139.0465  146.0369  159.4824 H       1  UNL1        0.1233
      9 C         141.2307  140.8458  161.6628 C.ar    1  UNL1        0.0016
     10 C         140.1664  139.8974  161.1960 C.ar    1  UNL1        0.0001
     11 C         140.5494  138.6097  160.5288 C.ar    1  UNL1        0.0023
     12 C         141.9967  138.2703  160.3284 C.ar    1  UNL1        0.0296
     13 C         143.0610  139.2186  160.7952 C.ar    1  UNL1        0.1401
     14 F         144.5083  138.8793  160.5948 F       1  UNL1       -0.2042
     15 C         142.6780  140.5064  161.4624 C.ar    1  UNL1        0.0296
     16 C         140.5820  142.3507  166.8169 C.ar    1  UNL1        0.0536
     17 C         141.8814  142.6439  166.1275 C.ar    1  UNL1        0.0045
     18 C         141.9700  142.5715  164.6318 C.ar    1  UNL1        0.0001
     19 C         140.7592  142.2059  163.8256 C.ar    1  UNL1       -0.0006
     20 C         139.4597  141.9127  164.5150 C.ar    1  UNL1        0.0001
     21 C         139.3711  141.9851  166.0106 C.ar    1  UNL1        0.0045
     22 N         140.7605  141.2007  169.1397 N.am    1  UNL1       -0.2761
     23 C         140.4934  142.4231  168.3125 C.2     1  UNL1        0.2490
     24 O         140.1376  143.7179  168.9809 O.2     1  UNL1       -0.2699
     25 C         141.8447  141.7608  171.4334 C.3     1  UNL1        0.0233
     26 C         140.6719  141.2731  170.6353 C.3     1  UNL1        0.0938
     27 C         141.1163  139.9058  168.4713 C.3     1  UNL1        0.0938
     28 C         142.5559  139.5214  168.2991 C.3     1  UNL1        0.0233
@<TRIPOS>BOND
     1    25    26    1
     2    26    22    1
     3    22    27    1
     4    27    28    1
     5    22    23   am
     6    23    24    2
     7    23    16    1
     8    16    17   ar
     9    17    18   ar
    10    18    19   ar
    11    19     1    1
    12     1     2    2
    13     2     3    1
    14     3     4    1
    15     4     5    1
    16     5     6    1
    17     6     7    1
    18     1     9    1
    19     9    10   ar
    20    10    11   ar
    21    11    12   ar
    22    12    13   ar
    23    13    14    1
    24    13    15   ar
    25    19    20   ar
    26    20    21   ar
    27    21    16   ar
    28     7     2    1
    29    15     9   ar
    30     5     8    1
@<TRIPOS>MOLECULE
*****
 28 30 0 0 0
SMALL
GASTEIGER

@<TRIPOS>ATOM
      1 C         141.7324  142.0589  162.3060 C.2     1  UNL1       -0.0077
      2 C         141.2623  143.4246  161.9012 C.2     1  UNL1       -0.0414
      3 C         141.1433  143.7766  160.4480 C.3     1  UNL1        0.0391
      4 C         140.6731  145.1424  160.0432 C.3     1  UNL1        0.0730
      5 N         140.3219  146.1560  161.0916 N.3     1  UNL1       -0.2969
      6 C         140.4409  145.8039  162.5448 C.3     1  UNL1        0.0730
      7 C         140.9111  144.4383  162.9496 C.3     1  UNL1        0.0391
      8 H         139.3500  146.4207  160.9314 H       1  UNL1        0.1233
      9 C         142.0836  141.0454  161.2576 C.ar    1  UNL1        0.0016
     10 C         143.4949  140.9383  160.7608 C.ar    1  UNL1        0.0001
     11 C         143.8461  139.9247  159.7123 C.ar    1  UNL1        0.0023
     12 C         142.7860  139.0181  159.1606 C.ar    1  UNL1        0.0296
     13 C         141.3747  139.1252  159.6574 C.ar    1  UNL1        0.1401
     14 F         140.3147  138.2186  159.1057 F       1  UNL1       -0.2042
     15 C         141.0235  140.1388  160.7059 C.ar    1  UNL1        0.0296
     16 C         142.0894  141.0028  166.6657 C.ar    1  UNL1        0.0536
     17 C         140.8775  140.5814  165.8887 C.ar    1  UNL1        0.0045
     18 C         140.7585  140.9335  164.4355 C.ar    1  UNL1        0.0001
     19 C         141.8514  141.7069  163.7592 C.ar    1  UNL1       -0.0006
     20 C         143.0633  142.1282  164.5362 C.ar    1  UNL1        0.0001
     21 C         143.1823  141.7762  165.9895 C.ar    1  UNL1        0.0045
     22 N         141.5837  141.5338  169.1582 N.am    1  UNL1       -0.2761
     23 C         142.2083  140.6507  168.1190 C.2     1  UNL1        0.2490
     24 O         142.9520  139.4156  168.5330 O.2     1  UNL1       -0.2699
     25 C         140.6735  140.3015  171.2565 C.3     1  UNL1        0.0233
     26 C         141.7027  141.1817  170.6114 C.3     1  UNL1        0.0938
     27 C         140.8400  142.7690  168.7441 C.3     1  UNL1        0.0938
     28 C         140.4905  143.8114  169.7645 C.3     1  UNL1        0.0233
@<TRIPOS>BOND
     1    25    26    1
     2    26    22    1
     3    22    27    1
     4    27    28    1
     5    22    23   am
     6    23    24    2
     7    23    16    1
     8    16    17   ar
     9    17    18   ar
    10    18    19   ar
    11    19     1    1
    12     1     2    2
    13     2     3    1
    14     3     4    1
    15     4     5    1
    16     5     6    1
    17     6     7    1
    18     1     9    1
    19     9    10   ar
    20    10    11   ar
    21    11    12   ar
    22    12    13   ar
    23    13    14    1
    24    13    15   ar
    25    19    20   ar
    26    20    21   ar
    27    21    16   ar
    28     7     2    1
    29    15     9   ar
    30     5     8    1
