@<TRIPOS>MOLECULE
*****
 33 36 0 0 0
SMALL
GASTEIGER

@<TRIPOS>ATOM
      1 N         141.5544  139.5700  161.0562 N.am    1  UNL1       -0.2638
      2 C         142.0464  140.9867  161.0830 C.3     1  UNL1        0.1164
      3 C         141.1725  138.8844  162.3345 C.2     1  UNL1        0.3078
      4 O         140.6804  137.4676  162.3078 O.2     1  UNL1       -0.2523
      5 N         141.2826  139.6156  163.6396 N.am    1  UNL1       -0.2538
      6 C         140.9392  139.0633  164.9914 C.3     1  UNL1        0.1221
      7 C         141.1999  140.1338  166.0093 C.2     1  UNL1       -0.0024
      8 C         141.7044  141.3476  165.2867 C.2     1  UNL1       -0.0044
      9 C         141.7556  141.0273  163.8222 C.3     1  UNL1        0.1264
     10 C         140.9924  140.0118  167.4899 C.ar    1  UNL1        0.0271
     11 C         139.6836  140.4181  168.0997 C.ar    1  UNL1        0.0316
     12 C         139.4761  140.2961  169.5803 C.ar    1  UNL1        0.1403
     13 F         138.1673  140.7024  170.1902 F       1  UNL1       -0.2042
     14 C         140.5774  139.7679  170.4510 C.ar    1  UNL1        0.0319
     15 C         141.8862  139.3616  169.8411 C.ar    1  UNL1        0.0319
     16 C         142.0937  139.4836  168.3606 C.ar    1  UNL1        0.1400
     17 F         143.4025  139.0773  167.7507 F       1  UNL1       -0.2042
     18 C         141.1138  136.6454  155.8358 C.3     1  UNL1        0.0896
     19 N         141.2239  137.3765  157.1409 N.3     1  UNL1       -0.2714
     20 C         140.0236  138.0670  157.7175 C.3     1  UNL1        0.0738
     21 C         140.1337  138.7981  159.0226 C.3     1  UNL1        0.0372
     22 C         141.4442  138.8388  159.7511 C.3     1  UNL1        0.0797
     23 C         142.6446  138.1484  159.1746 C.3     1  UNL1        0.0372
     24 C         142.5344  137.4173  157.8695 C.3     1  UNL1        0.0738
     25 C         142.2613  142.4335  163.6930 C.ar    1  UNL1        0.0002
     26 C         141.3332  143.5887  163.9256 C.ar    1  UNL1       -0.0023
     27 C         141.8389  144.9949  163.7963 C.ar    1  UNL1       -0.0003
     28 C         143.2728  145.2460  163.4344 C.ar    1  UNL1       -0.0000
     29 C         144.2009  144.0908  163.2018 C.ar    1  UNL1       -0.0003
     30 C         143.6952  142.6846  163.3310 C.ar    1  UNL1       -0.0023
     31 C         141.9125  141.0010  162.3306 C.3     1  UNL1        0.1637
     32 O         140.9981  141.8171  161.4658 O.3     1  UNL1       -0.3796
     33 H         140.0931  141.4760  161.5399 H       1  UNL1        0.2105
@<TRIPOS>BOND
     1    18    19    1
     2    19    20    1
     3    20    21    1
     4    21    22    1
     5    22     1    1
     6     1     2    1
     7     1     3   am
     8     3     4    2
     9     3     5   am
    10     5     6    1
    11     6     7    1
    12     7    10    1
    13    10    11   ar
    14    11    12   ar
    15    12    13    1
    16    12    14   ar
    17    14    15   ar
    18    15    16   ar
    19    16    17    1
    20     7     8    2
    21     8     9    1
    22     9    31    1
    23    31    32    1
    24     9    25    1
    25    25    26   ar
    26    26    27   ar
    27    27    28   ar
    28    28    29   ar
    29    29    30   ar
    30    22    23    1
    31    23    24    1
    32    24    19    1
    33     9     5    1
    34    30    25   ar
    35    16    10   ar
    36    32    33    1
@<TRIPOS>MOLECULE
*****
 33 36 0 0 0
SMALL
GASTEIGER

@<TRIPOS>ATOM
      1 N         142.7224  141.5840  161.6773 N.am    1  UNL1       -0.2638
      2 C         141.4321  142.3366  161.8136 C.3     1  UNL1        0.1164
      3 C         143.3649  140.9719  162.8866 C.2     1  UNL1        0.3078
      4 O         144.6553  140.2193  162.7503 O.2     1  UNL1       -0.2523
      5 N         142.7171  141.1124  164.2321 N.am    1  UNL1       -0.2538
      6 C         143.2392  140.5575  165.5243 C.3     1  UNL1        0.1221
      7 C         142.2782  140.9346  166.6126 C.2     1  UNL1       -0.0024
      8 C         141.1622  141.7225  165.9931 C.2     1  UNL1       -0.0044
      9 C         141.4335  141.8324  164.5219 C.3     1  UNL1        0.1264
     10 C         142.4101  140.5851  168.0653 C.ar    1  UNL1        0.0271
     11 C         142.6264  139.1590  168.4769 C.ar    1  UNL1        0.0316
     12 C         142.7583  138.8095  169.9297 C.ar    1  UNL1        0.1403
     13 F         142.9747  137.3833  170.3414 F       1  UNL1       -0.2042
     14 C         142.6739  139.8861  170.9708 C.ar    1  UNL1        0.0319
     15 C         142.4576  141.3121  170.5592 C.ar    1  UNL1        0.0319
     16 C         142.3257  141.6616  169.1064 C.ar    1  UNL1        0.1400
     17 F         142.1094  143.0877  168.6948 F       1  UNL1       -0.2042
     18 C         145.3136  141.0222  156.2949 C.3     1  UNL1        0.0896
     19 N         144.6658  141.1627  157.6405 N.3     1  UNL1       -0.2714
     20 C         144.9017  142.3957  158.4614 C.3     1  UNL1        0.0738
     21 C         144.2539  142.5362  159.8070 C.3     1  UNL1        0.0372
     22 C         143.3702  141.4436  160.3317 C.3     1  UNL1        0.0797
     23 C         143.1343  140.2106  159.5108 C.3     1  UNL1        0.0372
     24 C         143.7821  140.0701  158.1652 C.3     1  UNL1        0.0738
     25 C         140.1505  142.6093  164.5033 C.ar    1  UNL1        0.0002
     26 C         138.9233  142.0156  163.8777 C.ar    1  UNL1       -0.0023
     27 C         137.6403  142.7925  163.8590 C.ar    1  UNL1       -0.0003
     28 C         137.5846  144.1631  164.4660 C.ar    1  UNL1       -0.0000
     29 C         138.8119  144.7568  165.0916 C.ar    1  UNL1       -0.0003
     30 C         140.0948  143.9799  165.1102 C.ar    1  UNL1       -0.0023
     31 C         141.4366  142.1047  163.0468 C.3     1  UNL1        0.1637
     32 O         141.6612  143.4992  162.5420 O.3     1  UNL1       -0.3796
     33 H         140.9190  144.0635  162.8097 H       1  UNL1        0.2105
@<TRIPOS>BOND
     1    18    19    1
     2    19    20    1
     3    20    21    1
     4    21    22    1
     5    22     1    1
     6     1     2    1
     7     1     3   am
     8     3     4    2
     9     3     5   am
    10     5     6    1
    11     6     7    1
    12     7    10    1
    13    10    11   ar
    14    11    12   ar
    15    12    13    1
    16    12    14   ar
    17    14    15   ar
    18    15    16   ar
    19    16    17    1
    20     7     8    2
    21     8     9    1
    22     9    31    1
    23    31    32    1
    24     9    25    1
    25    25    26   ar
    26    26    27   ar
    27    27    28   ar
    28    28    29   ar
    29    29    30   ar
    30    22    23    1
    31    23    24    1
    32    24    19    1
    33     9     5    1
    34    30    25   ar
    35    16    10   ar
    36    32    33    1
@<TRIPOS>MOLECULE
*****
 33 36 0 0 0
SMALL
GASTEIGER

@<TRIPOS>ATOM
      1 N         143.0520  141.8267  160.9521 N.am    1  UNL1       -0.2638
      2 C         141.7117  142.4959  161.0262 C.3     1  UNL1        0.1164
      3 C         143.7203  141.3456  162.2059 C.2     1  UNL1        0.3078
      4 O         145.0608  140.6764  162.1319 O.2     1  UNL1       -0.2523
      5 N         143.0483  141.5337  163.5336 N.am    1  UNL1       -0.2538
      6 C         143.5915  141.1070  164.8652 C.3     1  UNL1        0.1221
      7 C         142.5939  141.4911  165.9174 C.2     1  UNL1       -0.0024
      8 C         141.4342  142.1552  165.2363 C.2     1  UNL1       -0.0044
      9 C         141.7150  142.1816  163.7631 C.3     1  UNL1        0.1264
     10 C         142.7319  141.2529  167.3919 C.ar    1  UNL1        0.0271
     11 C         143.0827  142.3896  168.3056 C.ar    1  UNL1        0.0316
     12 C         143.2207  142.1514  169.7802 C.ar    1  UNL1        0.1403
     13 F         143.5715  143.2881  170.6940 F       1  UNL1       -0.2042
     14 C         143.0079  140.7766  170.3410 C.ar    1  UNL1        0.0319
     15 C         142.6571  139.6399  169.4273 C.ar    1  UNL1        0.0319
     16 C         142.5191  139.8781  167.9528 C.ar    1  UNL1        0.1400
     17 F         142.1683  138.7414  167.0391 F       1  UNL1       -0.2042
     18 C         145.7403  141.0743  155.6411 C.3     1  UNL1        0.0896
     19 N         145.0683  141.2624  156.9689 N.3     1  UNL1       -0.2714
     20 C         144.0714  140.2523  157.4547 C.3     1  UNL1        0.0738
     21 C         143.3993  140.4404  158.7824 C.3     1  UNL1        0.0372
     22 C         143.7241  141.6386  159.6244 C.3     1  UNL1        0.0797
     23 C         144.7210  142.6486  159.1386 C.3     1  UNL1        0.0372
     24 C         145.3930  142.4605  157.8108 C.3     1  UNL1        0.0738
     25 C         140.3822  142.8648  163.6809 C.ar    1  UNL1        0.0002
     26 C         139.2178  142.1636  163.0464 C.ar    1  UNL1       -0.0023
     27 C         137.8850  142.8468  162.9642 C.ar    1  UNL1       -0.0003
     28 C         137.7165  144.2312  163.5165 C.ar    1  UNL1       -0.0000
     29 C         138.8809  144.9324  164.1510 C.ar    1  UNL1       -0.0003
     30 C         140.2137  144.2492  164.2332 C.ar    1  UNL1       -0.0023
     31 C         141.7172  142.3507  162.2726 C.3     1  UNL1        0.1637
     32 O         141.8687  143.7173  161.6731 O.3     1  UNL1       -0.3796
     33 H         141.0937  144.2562  161.8965 H       1  UNL1        0.2105
@<TRIPOS>BOND
     1    18    19    1
     2    19    20    1
     3    20    21    1
     4    21    22    1
     5    22     1    1
     6     1     2    1
     7     1     3   am
     8     3     4    2
     9     3     5   am
    10     5     6    1
    11     6     7    1
    12     7    10    1
    13    10    11   ar
    14    11    12   ar
    15    12    13    1
    16    12    14   ar
    17    14    15   ar
    18    15    16   ar
    19    16    17    1
    20     7     8    2
    21     8     9    1
    22     9    31    1
    23    31    32    1
    24     9    25    1
    25    25    26   ar
    26    26    27   ar
    27    27    28   ar
    28    28    29   ar
    29    29    30   ar
    30    22    23    1
    31    23    24    1
    32    24    19    1
    33     9     5    1
    34    30    25   ar
    35    16    10   ar
    36    32    33    1
@<TRIPOS>MOLECULE
*****
 33 36 0 0 0
SMALL
GASTEIGER

@<TRIPOS>ATOM
      1 N         141.6661  139.4658  160.9093 N.am    1  UNL1       -0.2638
      2 C         142.1975  140.8685  160.9122 C.3     1  UNL1        0.1164
      3 C         141.2789  138.8079  162.2005 C.2     1  UNL1        0.3078
      4 O         140.7474  137.4052  162.1977 O.2     1  UNL1       -0.2523
      5 N         141.4231  139.5527  163.4945 N.am    1  UNL1       -0.2538
      6 C         141.0787  139.0279  164.8570 C.3     1  UNL1        0.1221
      7 C         141.3798  140.1039  165.8578 C.2     1  UNL1       -0.0024
      8 C         141.9102  141.2936  165.1139 C.2     1  UNL1       -0.0044
      9 C         141.9369  140.9529  163.6534 C.3     1  UNL1        0.1264
     10 C         141.1847  140.0072  167.3419 C.ar    1  UNL1        0.0271
     11 C         142.3729  139.8712  168.2472 C.ar    1  UNL1        0.0316
     12 C         142.1778  139.7744  169.7313 C.ar    1  UNL1        0.1403
     13 F         143.3661  139.6384  170.6367 F       1  UNL1       -0.2042
     14 C         140.7945  139.8136  170.3101 C.ar    1  UNL1        0.0319
     15 C         139.6063  139.9496  169.4047 C.ar    1  UNL1        0.0319
     16 C         139.8014  140.0463  167.9206 C.ar    1  UNL1        0.1400
     17 F         138.6132  140.1823  167.0153 F       1  UNL1       -0.2042
     18 C         141.0893  136.4867  155.7332 C.3     1  UNL1        0.0896
     19 N         141.2335  137.2315  157.0272 N.3     1  UNL1       -0.2714
     20 C         142.5601  137.2709  157.7261 C.3     1  UNL1        0.0738
     21 C         142.7043  138.0157  159.0201 C.3     1  UNL1        0.0372
     22 C         141.5219  138.7210  159.6153 C.3     1  UNL1        0.0797
     23 C         140.1953  138.6816  158.9164 C.3     1  UNL1        0.0372
     24 C         140.0511  137.9368  157.6224 C.3     1  UNL1        0.0738
     25 C         142.4801  142.3427  163.5002 C.ar    1  UNL1        0.0002
     26 C         143.8838  142.5499  163.0136 C.ar    1  UNL1       -0.0023
     27 C         144.4270  143.9396  162.8604 C.ar    1  UNL1       -0.0003
     28 C         143.5665  145.1222  163.1938 C.ar    1  UNL1       -0.0000
     29 C         142.1628  144.9150  163.6804 C.ar    1  UNL1       -0.0003
     30 C         141.6196  143.5253  163.8336 C.ar    1  UNL1       -0.0023
     31 C         142.0772  140.9028  162.1607 C.3     1  UNL1        0.1637
     32 O         141.1696  141.7244  161.2941 O.3     1  UNL1       -0.3796
     33 H         140.2590  141.4019  161.3825 H       1  UNL1        0.2105
@<TRIPOS>BOND
     1    18    19    1
     2    19    20    1
     3    20    21    1
     4    21    22    1
     5    22     1    1
     6     1     2    1
     7     1     3   am
     8     3     4    2
     9     3     5   am
    10     5     6    1
    11     6     7    1
    12     7    10    1
    13    10    11   ar
    14    11    12   ar
    15    12    13    1
    16    12    14   ar
    17    14    15   ar
    18    15    16   ar
    19    16    17    1
    20     7     8    2
    21     8     9    1
    22     9    31    1
    23    31    32    1
    24     9    25    1
    25    25    26   ar
    26    26    27   ar
    27    27    28   ar
    28    28    29   ar
    29    29    30   ar
    30    22    23    1
    31    23    24    1
    32    24    19    1
    33     9     5    1
    34    30    25   ar
    35    16    10   ar
    36    32    33    1
@<TRIPOS>MOLECULE
*****
 33 36 0 0 0
SMALL
GASTEIGER

@<TRIPOS>ATOM
      1 N         139.6269  141.7127  160.8872 N.am    1  UNL1       -0.2638
      2 C         141.1264  141.6808  160.8652 C.3     1  UNL1        0.1164
      3 C         138.8969  141.7572  162.1968 C.2     1  UNL1        0.3078
      4 O         137.3973  141.7892  162.2189 O.2     1  UNL1       -0.2523
      5 N         139.6663  141.7699  163.4844 N.am    1  UNL1       -0.2538
      6 C         139.0771  141.8130  164.8632 C.3     1  UNL1        0.1221
      7 C         140.2068  141.8114  165.8501 C.2     1  UNL1       -0.0024
      8 C         141.4940  141.7672  165.0813 C.2     1  UNL1       -0.0044
      9 C         141.1600  141.7416  163.6192 C.3     1  UNL1        0.1264
     10 C         140.0726  141.8475  167.3437 C.ar    1  UNL1        0.0271
     11 C         140.3642  143.1142  168.0924 C.ar    1  UNL1        0.0316
     12 C         140.2301  143.1503  169.5859 C.ar    1  UNL1        0.1403
     13 F         140.5217  144.4170  170.3347 F       1  UNL1       -0.2042
     14 C         139.8043  141.9199  170.3308 C.ar    1  UNL1        0.0319
     15 C         139.5127  140.6533  169.5820 C.ar    1  UNL1        0.0319
     16 C         139.6468  140.6171  168.0885 C.ar    1  UNL1        0.1400
     17 F         139.3552  139.3505  167.3398 F       1  UNL1       -0.2042
     18 C         136.5491  141.6622  155.7370 C.3     1  UNL1        0.0896
     19 N         137.3186  141.6748  157.0246 N.3     1  UNL1       -0.2714
     20 C         138.0423  142.9166  157.4536 C.3     1  UNL1        0.0738
     21 C         138.8118  142.9292  158.7412 C.3     1  UNL1        0.0372
     22 C         138.8575  141.7001  159.5997 C.3     1  UNL1        0.0797
     23 C         138.1337  140.4583  159.1706 C.3     1  UNL1        0.0372
     24 C         137.3642  140.4457  157.8831 C.3     1  UNL1        0.0738
     25 C         142.6489  141.7064  163.4406 C.ar    1  UNL1        0.0002
     26 C         143.3275  140.4265  163.0516 C.ar    1  UNL1       -0.0023
     27 C         144.8164  140.3913  162.8730 C.ar    1  UNL1       -0.0003
     28 C         145.6266  141.6360  163.0833 C.ar    1  UNL1       -0.0000
     29 C         144.9480  142.9159  163.4722 C.ar    1  UNL1       -0.0003
     30 C         143.4591  142.9511  163.6508 C.ar    1  UNL1       -0.0023
     31 C         141.1372  141.7086  162.1197 C.3     1  UNL1        0.1637
     32 O         141.6482  142.8810  161.3359 O.3     1  UNL1       -0.3796
     33 H         141.0745  143.6478  161.4901 H       1  UNL1        0.2105
@<TRIPOS>BOND
     1    18    19    1
     2    19    20    1
     3    20    21    1
     4    21    22    1
     5    22     1    1
     6     1     2    1
     7     1     3   am
     8     3     4    2
     9     3     5   am
    10     5     6    1
    11     6     7    1
    12     7    10    1
    13    10    11   ar
    14    11    12   ar
    15    12    13    1
    16    12    14   ar
    17    14    15   ar
    18    15    16   ar
    19    16    17    1
    20     7     8    2
    21     8     9    1
    22     9    31    1
    23    31    32    1
    24     9    25    1
    25    25    26   ar
    26    26    27   ar
    27    27    28   ar
    28    28    29   ar
    29    29    30   ar
    30    22    23    1
    31    23    24    1
    32    24    19    1
    33     9     5    1
    34    30    25   ar
    35    16    10   ar
    36    32    33    1
@<TRIPOS>MOLECULE
*****
 33 36 0 0 0
SMALL
GASTEIGER

@<TRIPOS>ATOM
      1 N         140.6200  143.3230  160.3734 N.am    1  UNL1       -0.2638
      2 C         142.0705  143.1166  160.6951 C.3     1  UNL1        0.1164
      3 C         139.5657  142.8682  161.3384 C.2     1  UNL1        0.3078
      4 O         138.1151  143.0745  161.0167 O.2     1  UNL1       -0.2523
      5 N         139.9617  142.2069  162.6252 N.am    1  UNL1       -0.2538
      6 C         139.0245  141.7022  163.6821 C.3     1  UNL1        0.1221
      7 C         139.8482  141.1176  164.7911 C.2     1  UNL1       -0.0024
      8 C         141.2944  141.2611  164.4197 C.2     1  UNL1       -0.0044
      9 C         141.3645  141.9343  163.0811 C.3     1  UNL1        0.1264
     10 C         139.3185  140.4983  166.0505 C.ar    1  UNL1        0.0271
     11 C         138.3033  139.3967  165.9751 C.ar    1  UNL1        0.0316
     12 C         137.7737  138.7774  167.2344 C.ar    1  UNL1        0.1403
     13 F         136.7584  137.6758  167.1590 F       1  UNL1       -0.2042
     14 C         138.2593  139.2598  168.5692 C.ar    1  UNL1        0.0319
     15 C         139.2745  140.3614  168.6446 C.ar    1  UNL1        0.0319
     16 C         139.8041  140.9807  167.3853 C.ar    1  UNL1        0.1400
     17 F         140.8194  142.0823  167.4607 F       1  UNL1       -0.2042
     18 C         139.0357  145.9680  155.2262 C.3     1  UNL1        0.0896
     19 N         139.4318  145.3068  156.5130 N.3     1  UNL1       -0.2714
     20 C         140.0909  146.1082  157.5961 C.3     1  UNL1        0.0738
     21 C         140.4869  145.4469  158.8829 C.3     1  UNL1        0.0372
     22 C         140.2239  143.9843  159.0866 C.3     1  UNL1        0.0797
     23 C         139.5648  143.1829  158.0034 C.3     1  UNL1        0.0372
     24 C         139.1687  143.8442  156.7166 C.3     1  UNL1        0.0738
     25 C         142.8468  141.7964  163.2652 C.ar    1  UNL1        0.0002
     26 C         143.6635  142.9815  163.6876 C.ar    1  UNL1       -0.0023
     27 C         145.1458  142.8436  163.8717 C.ar    1  UNL1       -0.0003
     28 C         145.8113  141.5206  163.6333 C.ar    1  UNL1       -0.0000
     29 C         144.9945  140.3355  163.2109 C.ar    1  UNL1       -0.0003
     30 C         143.5123  140.4734  163.0269 C.ar    1  UNL1       -0.0023
     31 C         141.7446  142.5787  161.7809 C.3     1  UNL1        0.1637
     32 O         142.3534  141.7548  160.6853 O.3     1  UNL1       -0.3796
     33 H         143.2239  141.4336  160.9678 H       1  UNL1        0.2105
@<TRIPOS>BOND
     1    18    19    1
     2    19    20    1
     3    20    21    1
     4    21    22    1
     5    22     1    1
     6     1     2    1
     7     1     3   am
     8     3     4    2
     9     3     5   am
    10     5     6    1
    11     6     7    1
    12     7    10    1
    13    10    11   ar
    14    11    12   ar
    15    12    13    1
    16    12    14   ar
    17    14    15   ar
    18    15    16   ar
    19    16    17    1
    20     7     8    2
    21     8     9    1
    22     9    31    1
    23    31    32    1
    24     9    25    1
    25    25    26   ar
    26    26    27   ar
    27    27    28   ar
    28    28    29   ar
    29    29    30   ar
    30    22    23    1
    31    23    24    1
    32    24    19    1
    33     9     5    1
    34    30    25   ar
    35    16    10   ar
    36    32    33    1
@<TRIPOS>MOLECULE
*****
 33 36 0 0 0
SMALL
GASTEIGER

@<TRIPOS>ATOM
      1 N         141.2652  142.8548  161.3813 N.am    1  UNL1       -0.2638
      2 C         140.7511  141.4459  161.3577 C.3     1  UNL1        0.1164
      3 C         141.7097  143.4693  162.6753 C.2     1  UNL1        0.3078
      4 O         142.2239  144.8783  162.6990 O.2     1  UNL1       -0.2523
      5 N         141.6401  142.6750  163.9458 N.am    1  UNL1       -0.2538
      6 C         142.0470  143.1533  165.3081 C.3     1  UNL1        0.1221
      7 C         141.8097  142.0367  166.2813 C.2     1  UNL1       -0.0024
      8 C         141.2562  140.8684  165.5206 C.2     1  UNL1       -0.0044
      9 C         141.1514  141.2629  164.0772 C.3     1  UNL1        0.1264
     10 C         142.0787  142.0808  167.7564 C.ar    1  UNL1        0.0271
     11 C         143.4569  142.3947  168.2583 C.ar    1  UNL1        0.0316
     12 C         143.7260  142.4387  169.7333 C.ar    1  UNL1        0.1403
     13 F         145.1043  142.7526  170.2353 F       1  UNL1       -0.2042
     14 C         142.6167  142.1690  170.7064 C.ar    1  UNL1        0.0319
     15 C         141.2385  141.8551  170.2045 C.ar    1  UNL1        0.0319
     16 C         140.9695  141.8110  168.7295 C.ar    1  UNL1        0.1400
     17 F         139.5913  141.4971  168.2275 F       1  UNL1       -0.2042
     18 C         141.5437  146.0322  156.2993 C.3     1  UNL1        0.0896
     19 N         141.4741  145.2378  157.5698 N.3     1  UNL1       -0.2714
     20 C         142.5573  144.2541  157.8996 C.3     1  UNL1        0.0738
     21 C         142.4877  143.4598  159.1701 C.3     1  UNL1        0.0372
     22 C         141.3348  143.6491  160.1108 C.3     1  UNL1        0.0797
     23 C         140.2516  144.6328  159.7810 C.3     1  UNL1        0.0372
     24 C         140.3212  145.4272  158.5105 C.3     1  UNL1        0.0738
     25 C         140.6174  139.8726  163.8989 C.ar    1  UNL1        0.0002
     26 C         141.5294  138.6926  164.0601 C.ar    1  UNL1       -0.0023
     27 C         140.9954  137.3022  163.8819 C.ar    1  UNL1       -0.0003
     28 C         139.5495  137.0919  163.5425 C.ar    1  UNL1       -0.0000
     29 C         138.6376  138.2719  163.3813 C.ar    1  UNL1       -0.0003
     30 C         139.1715  139.6622  163.5595 C.ar    1  UNL1       -0.0023
     31 C         140.9349  141.3667  162.5964 C.3     1  UNL1        0.1637
     32 O         141.7980  140.5797  161.6553 O.3     1  UNL1       -0.3796
     33 H         142.7115  140.9013  161.7088 H       1  UNL1        0.2105
@<TRIPOS>BOND
     1    18    19    1
     2    19    20    1
     3    20    21    1
     4    21    22    1
     5    22     1    1
     6     1     2    1
     7     1     3   am
     8     3     4    2
     9     3     5   am
    10     5     6    1
    11     6     7    1
    12     7    10    1
    13    10    11   ar
    14    11    12   ar
    15    12    13    1
    16    12    14   ar
    17    14    15   ar
    18    15    16   ar
    19    16    17    1
    20     7     8    2
    21     8     9    1
    22     9    31    1
    23    31    32    1
    24     9    25    1
    25    25    26   ar
    26    26    27   ar
    27    27    28   ar
    28    28    29   ar
    29    29    30   ar
    30    22    23    1
    31    23    24    1
    32    24    19    1
    33     9     5    1
    34    30    25   ar
    35    16    10   ar
    36    32    33    1
@<TRIPOS>MOLECULE
*****
 33 36 0 0 0
SMALL
GASTEIGER

@<TRIPOS>ATOM
      1 N         140.4090  143.1274  160.0559 N.am    1  UNL1       -0.2638
      2 C         141.2817  141.9173  159.9005 C.3     1  UNL1        0.1164
      3 C         139.8982  143.5145  161.4120 C.2     1  UNL1        0.3078
      4 O         139.0254  144.7246  161.5674 O.2     1  UNL1       -0.2523
      5 N         140.2600  142.6916  162.6128 N.am    1  UNL1       -0.2538
      6 C         139.8264  142.9539  164.0246 C.3     1  UNL1        0.1221
      7 C         140.4175  141.8863  164.8969 C.2     1  UNL1       -0.0024
      8 C         141.2163  140.9641  164.0243 C.2     1  UNL1       -0.0044
      9 C         141.1190  141.4618  162.6126 C.3     1  UNL1        0.1264
     10 C         140.2407  141.7625  166.3813 C.ar    1  UNL1        0.0271
     11 C         140.5630  142.9238  167.2743 C.ar    1  UNL1        0.0316
     12 C         140.3862  142.8001  168.7587 C.ar    1  UNL1        0.1403
     13 F         140.7084  143.9615  169.6518 F       1  UNL1       -0.2042
     14 C         139.8871  141.5151  169.3501 C.ar    1  UNL1        0.0319
     15 C         139.5648  140.3538  168.4571 C.ar    1  UNL1        0.0319
     16 C         139.7416  140.4775  166.9727 C.ar    1  UNL1        0.1400
     17 F         139.4194  139.3162  166.0797 F       1  UNL1       -0.2042
     18 C         138.9616  146.4190  155.2528 C.3     1  UNL1        0.0896
     19 N         139.3234  145.5961  156.4535 N.3     1  UNL1       -0.2714
     20 C         140.1479  146.1965  157.5534 C.3     1  UNL1        0.0738
     21 C         140.5098  145.3736  158.7542 C.3     1  UNL1        0.0372
     22 C         140.0471  143.9503  158.8551 C.3     1  UNL1        0.0797
     23 C         139.2226  143.3499  157.7552 C.3     1  UNL1        0.0372
     24 C         138.8608  144.1729  156.5545 C.3     1  UNL1        0.0738
     25 C         141.9959  140.2847  162.3037 C.ar    1  UNL1        0.0002
     26 C         141.4086  138.9055  162.2502 C.ar    1  UNL1       -0.0023
     27 C         142.2855  137.7284  161.9414 C.ar    1  UNL1       -0.0003
     28 C         143.7498  137.9305  161.6861 C.ar    1  UNL1       -0.0000
     29 C         144.3371  139.3097  161.7396 C.ar    1  UNL1       -0.0003
     30 C         143.4601  140.4868  162.0484 C.ar    1  UNL1       -0.0023
     31 C         141.2050  141.7135  161.1363 C.3     1  UNL1        0.1637
     32 O         140.5229  140.7845  160.1762 O.3     1  UNL1       -0.3796
     33 H         140.9437  139.9115  160.2168 H       1  UNL1        0.2105
@<TRIPOS>BOND
     1    18    19    1
     2    19    20    1
     3    20    21    1
     4    21    22    1
     5    22     1    1
     6     1     2    1
     7     1     3   am
     8     3     4    2
     9     3     5   am
    10     5     6    1
    11     6     7    1
    12     7    10    1
    13    10    11   ar
    14    11    12   ar
    15    12    13    1
    16    12    14   ar
    17    14    15   ar
    18    15    16   ar
    19    16    17    1
    20     7     8    2
    21     8     9    1
    22     9    31    1
    23    31    32    1
    24     9    25    1
    25    25    26   ar
    26    26    27   ar
    27    27    28   ar
    28    28    29   ar
    29    29    30   ar
    30    22    23    1
    31    23    24    1
    32    24    19    1
    33     9     5    1
    34    30    25   ar
    35    16    10   ar
    36    32    33    1
@<TRIPOS>MOLECULE
*****
 33 36 0 0 0
SMALL
GASTEIGER

@<TRIPOS>ATOM
      1 N         140.9471  143.1106  161.4063 N.am    1  UNL1       -0.2638
      2 C         142.1503  142.2236  161.5303 C.3     1  UNL1        0.1164
      3 C         140.1672  143.4919  162.6295 C.2     1  UNL1        0.3078
      4 O         138.9639  144.3789  162.5056 O.2     1  UNL1       -0.2523
      5 N         140.5906  142.9862  163.9768 N.am    1  UNL1       -0.2538
      6 C         139.9131  143.2814  165.2822 C.3     1  UNL1        0.1221
      7 C         140.6696  142.5741  166.3673 C.2     1  UNL1       -0.0024
      8 C         141.8146  141.8419  165.7326 C.2     1  UNL1       -0.0044
      9 C         141.7657  142.0966  164.2552 C.3     1  UNL1        0.1264
     10 C         140.3391  142.5954  167.8303 C.ar    1  UNL1        0.0271
     11 C         140.3466  143.8934  168.5820 C.ar    1  UNL1        0.0316
     12 C         140.0160  143.9147  170.0450 C.ar    1  UNL1        0.1403
     13 F         140.0235  145.2128  170.7968 F       1  UNL1       -0.2042
     14 C         139.6781  142.6380  170.7562 C.ar    1  UNL1        0.0319
     15 C         139.6706  141.3400  170.0045 C.ar    1  UNL1        0.0319
     16 C         140.0011  141.3187  168.5415 C.ar    1  UNL1        0.1400
     17 F         139.9937  140.0207  167.7898 F       1  UNL1       -0.2042
     18 C         139.2536  145.1334  156.0174 C.3     1  UNL1        0.0896
     19 N         139.6770  144.6277  157.3646 N.3     1  UNL1       -0.2714
     20 C         140.5584  145.4697  158.2387 C.3     1  UNL1        0.0738
     21 C         140.9818  144.9640  159.5860 C.3     1  UNL1        0.0372
     22 C         140.5237  143.6163  160.0591 C.3     1  UNL1        0.0797
     23 C         139.6423  142.7744  159.1850 C.3     1  UNL1        0.0372
     24 C         139.2189  143.2801  157.8377 C.3     1  UNL1        0.0738
     25 C         142.9839  141.2219  164.2234 C.ar    1  UNL1        0.0002
     26 C         142.8479  139.7395  164.4076 C.ar    1  UNL1       -0.0023
     27 C         144.0661  138.8649  164.3758 C.ar    1  UNL1       -0.0003
     28 C         145.4203  139.4727  164.1597 C.ar    1  UNL1       -0.0000
     29 C         145.5564  140.9551  163.9755 C.ar    1  UNL1       -0.0003
     30 C         144.3382  141.8297  164.0073 C.ar    1  UNL1       -0.0023
     31 C         141.9716  142.1684  162.7711 C.3     1  UNL1        0.1637
     32 O         141.7421  140.9531  161.9224 O.3     1  UNL1       -0.3796
     33 H         142.3989  140.2747  162.1447 H       1  UNL1        0.2105
@<TRIPOS>BOND
     1    18    19    1
     2    19    20    1
     3    20    21    1
     4    21    22    1
     5    22     1    1
     6     1     2    1
     7     1     3   am
     8     3     4    2
     9     3     5   am
    10     5     6    1
    11     6     7    1
    12     7    10    1
    13    10    11   ar
    14    11    12   ar
    15    12    13    1
    16    12    14   ar
    17    14    15   ar
    18    15    16   ar
    19    16    17    1
    20     7     8    2
    21     8     9    1
    22     9    31    1
    23    31    32    1
    24     9    25    1
    25    25    26   ar
    26    26    27   ar
    27    27    28   ar
    28    28    29   ar
    29    29    30   ar
    30    22    23    1
    31    23    24    1
    32    24    19    1
    33     9     5    1
    34    30    25   ar
    35    16    10   ar
    36    32    33    1
