@<TRIPOS>MOLECULE
*****
 34 38 0 0 0
SMALL
GASTEIGER

@<TRIPOS>ATOM
      1 N         138.4981  141.7261  159.7157 N.3     1  UNL1       -0.2673
      2 C         139.0907  140.3581  159.5508 C.3     1  UNL1        0.1035
      3 C         139.1778  139.4318  160.7274 C.3     1  UNL1        0.1470
      4 C         139.2650  138.5054  161.9040 C.3     1  UNL1        0.1037
      5 N         138.7595  138.9472  163.2454 N.3     1  UNL1       -0.2646
      6 C         138.1668  140.3153  163.4102 C.3     1  UNL1        0.1037
      7 C         138.0797  141.2416  162.2336 C.3     1  UNL1        0.1470
      8 C         137.9926  142.1679  161.0571 C.3     1  UNL1        0.1035
      9 O         138.6723  139.8736  162.0688 O.3     1  UNL1       -0.3530
     10 C         138.4109  142.6525  158.5391 C.3     1  UNL1        0.0913
     11 C         139.5736  143.5338  158.1906 C.3     1  UNL1        0.1087
     12 N         139.8660  144.7512  159.0168 N.3     1  UNL1       -0.1780
     13 H         140.2877  145.4374  158.3909 H       1  UNL1        0.1488
     14 S         140.7640  144.6474  160.2137 S.O2    1  UNL1        0.0603
     15 O         141.7566  143.8695  159.4016 O.2     1  UNL1       -0.1530
     16 O         139.7715  145.4254  161.0258 O.2     1  UNL1       -0.1530
     17 C         143.4582  144.3360  163.8046 C.ar    1  UNL1        0.0685
     18 C         142.1598  145.0804  163.9035 C.ar    1  UNL1        0.0116
     19 C         141.2617  145.1843  162.7065 C.ar    1  UNL1        0.0206
     20 C         141.6621  144.5436  161.4107 C.ar    1  UNL1        0.1220
     21 C         142.9606  143.7991  161.3118 C.ar    1  UNL1        0.0206
     22 C         143.8586  143.6953  162.5087 C.ar    1  UNL1        0.0116
     23 N         145.2543  144.1283  166.1986 N.1     1  UNL1       -0.1908
     24 C         144.3562  144.2322  165.0016 C.1     1  UNL1        0.1004
     25 C         138.8466  138.0209  164.4220 C.3     1  UNL1        0.1025
     26 C         138.7777  138.5705  165.8160 C.ar    1  UNL1        0.0344
     27 C         137.7153  138.2689  166.8311 C.ar    1  UNL1        0.1766
     28 O         138.0401  139.0303  168.0821 O.2     1  UNL1       -0.4507
     29 C         139.3033  139.8023  167.8401 C.ar    1  UNL1        0.1452
     30 C         140.0973  140.7273  168.7141 C.ar    1  UNL1        0.0375
     31 C         141.3470  141.3682  168.1876 C.ar    1  UNL1        0.0031
     32 C         141.8029  141.0840  166.7870 C.ar    1  UNL1        0.0002
     33 C         141.0089  140.1590  165.9130 C.ar    1  UNL1        0.0029
     34 C         139.7591  139.5182  166.4396 C.ar    1  UNL1        0.0349
@<TRIPOS>BOND
     1    23    24    3
     2    24    17    1
     3    17    18   ar
     4    18    19   ar
     5    19    20   ar
     6    20    14    1
     7    14    15    2
     8    14    16    2
     9    14    12    1
    10    12    11    1
    11    11    10    1
    12    10     1    1
    13     1     2    1
    14     2     3    1
    15     3     4    1
    16     4     5    1
    17     5    25    1
    18    25    26    1
    19    26    27   ar
    20    27    28   ar
    21    28    29   ar
    22    29    30   ar
    23    30    31   ar
    24    31    32   ar
    25    32    33   ar
    26    33    34   ar
    27     5     6    1
    28     6     7    1
    29     7     8    1
    30     7     9    1
    31    20    21   ar
    32    21    22   ar
    33    22    17   ar
    34     8     1    1
    35     9     3    1
    36    34    26   ar
    37    34    29   ar
    38    12    13    1
@<TRIPOS>MOLECULE
*****
 34 38 0 0 0
SMALL
GASTEIGER

@<TRIPOS>ATOM
      1 N         144.1364  141.3806  159.9897 N.3     1  UNL1       -0.2673
      2 C         143.7009  139.9547  160.1540 C.3     1  UNL1        0.1035
      3 C         143.5895  139.3578  161.5256 C.3     1  UNL1        0.1470
      4 C         143.4781  138.7609  162.8972 C.3     1  UNL1        0.1037
      5 N         143.8022  139.5899  164.1045 N.3     1  UNL1       -0.2646
      6 C         144.2377  141.0159  163.9402 C.3     1  UNL1        0.1037
      7 C         144.3491  141.6128  162.5686 C.3     1  UNL1        0.1470
      8 C         144.4605  142.2096  161.1970 C.3     1  UNL1        0.1035
      9 O         143.9136  140.1869  162.7329 O.3     1  UNL1       -0.3530
     10 C         144.2478  141.9775  158.6181 C.3     1  UNL1        0.0913
     11 C         143.4917  143.2283  158.2808 C.3     1  UNL1        0.1087
     12 N         141.9972  143.2581  158.4062 N.3     1  UNL1       -0.1780
     13 H         141.6579  143.9363  157.7240 H       1  UNL1        0.1488
     14 S         141.3615  143.6090  159.7187 S.O2    1  UNL1        0.0603
     15 O         142.0119  144.9598  159.6725 O.2     1  UNL1       -0.1530
     16 O         140.7112  142.2581  159.7649 O.2     1  UNL1       -0.1530
     17 C         139.4546  144.6618  163.6563 C.ar    1  UNL1        0.0685
     18 C         138.6650  143.9285  162.6129 C.ar    1  UNL1        0.0116
     19 C         139.3006  143.5776  161.3003 C.ar    1  UNL1        0.0206
     20 C         140.7259  143.9599  161.0312 C.ar    1  UNL1        0.1220
     21 C         141.5155  144.6932  162.0747 C.ar    1  UNL1        0.0206
     22 C         140.8798  145.0442  163.3872 C.ar    1  UNL1        0.0116
     23 N         138.1833  145.3637  166.2815 N.1     1  UNL1       -0.1908
     24 C         138.8189  145.0127  164.9688 C.1     1  UNL1        0.1004
     25 C         143.6908  138.9931  165.4761 C.3     1  UNL1        0.1025
     26 C         142.5739  139.4093  166.3868 C.ar    1  UNL1        0.0344
     27 C         142.7209  140.1678  167.6725 C.ar    1  UNL1        0.1766
     28 O         141.3517  140.3674  168.2520 O.2     1  UNL1       -0.4507
     29 C         140.3586  139.7323  167.3243 C.ar    1  UNL1        0.1452
     30 C         138.8642  139.6166  167.3803 C.ar    1  UNL1        0.0375
     31 C         138.1251  138.9089  166.2837 C.ar    1  UNL1        0.0031
     32 C         138.8804  138.3167  165.1309 C.ar    1  UNL1        0.0002
     33 C         140.3749  138.4323  165.0749 C.ar    1  UNL1        0.0029
     34 C         141.1140  139.1401  166.1716 C.ar    1  UNL1        0.0349
@<TRIPOS>BOND
     1    23    24    3
     2    24    17    1
     3    17    18   ar
     4    18    19   ar
     5    19    20   ar
     6    20    14    1
     7    14    15    2
     8    14    16    2
     9    14    12    1
    10    12    11    1
    11    11    10    1
    12    10     1    1
    13     1     2    1
    14     2     3    1
    15     3     4    1
    16     4     5    1
    17     5    25    1
    18    25    26    1
    19    26    27   ar
    20    27    28   ar
    21    28    29   ar
    22    29    30   ar
    23    30    31   ar
    24    31    32   ar
    25    32    33   ar
    26    33    34   ar
    27     5     6    1
    28     6     7    1
    29     7     8    1
    30     7     9    1
    31    20    21   ar
    32    21    22   ar
    33    22    17   ar
    34     8     1    1
    35     9     3    1
    36    34    26   ar
    37    34    29   ar
    38    12    13    1
@<TRIPOS>MOLECULE
*****
 34 38 0 0 0
SMALL
GASTEIGER

@<TRIPOS>ATOM
      1 N         138.5587  141.8811  160.6110 N.3     1  UNL1       -0.2673
      2 C         137.7628  142.5612  161.6852 C.3     1  UNL1        0.1035
      3 C         137.9459  142.1635  163.1198 C.3     1  UNL1        0.1470
      4 C         138.1289  141.7658  164.5546 C.3     1  UNL1        0.1037
      5 N         139.1079  140.6880  164.9151 N.3     1  UNL1       -0.2646
      6 C         139.9039  140.0079  163.8408 C.3     1  UNL1        0.1037
      7 C         139.7208  140.4056  162.4061 C.3     1  UNL1        0.1470
      8 C         139.5377  140.8033  160.9715 C.3     1  UNL1        0.1035
      9 O         138.9249  141.0857  163.4803 O.3     1  UNL1       -0.3530
     10 C         138.3757  142.2788  159.1762 C.3     1  UNL1        0.0913
     11 C         139.3749  143.1809  158.5147 C.3     1  UNL1        0.1087
     12 N         139.7773  144.4664  159.1748 N.3     1  UNL1       -0.1780
     13 H         140.2212  145.0395  158.4573 H       1  UNL1        0.1488
     14 S         140.7086  144.4464  160.3505 S.O2    1  UNL1        0.0603
     15 O         141.6079  143.4924  159.6218 O.2     1  UNL1       -0.1530
     16 O         139.8092  145.4004  161.0792 O.2     1  UNL1       -0.1530
     17 C         143.5026  144.3862  163.8775 C.ar    1  UNL1        0.0685
     18 C         142.2088  145.1409  163.9584 C.ar    1  UNL1        0.0116
     19 C         141.2774  145.1610  162.7827 C.ar    1  UNL1        0.0206
     20 C         141.6399  144.4263  161.5261 C.ar    1  UNL1        0.1220
     21 C         142.9337  143.6716  161.4453 C.ar    1  UNL1        0.0206
     22 C         143.8650  143.6515  162.6210 C.ar    1  UNL1        0.0116
     23 N         145.3652  144.3462  166.2289 N.1     1  UNL1       -0.1908
     24 C         144.4339  144.3662  165.0532 C.1     1  UNL1        0.1004
     25 C         139.2910  140.2903  166.3497 C.3     1  UNL1        0.1025
     26 C         140.6510  140.3577  166.9790 C.ar    1  UNL1        0.0344
     27 C         141.8072  139.4505  166.6787 C.ar    1  UNL1        0.1766
     28 O         142.9643  139.8761  167.5332 O.2     1  UNL1       -0.4507
     29 C         142.5231  141.0463  168.3615 C.ar    1  UNL1        0.1452
     30 C         143.2385  141.8793  169.3834 C.ar    1  UNL1        0.0375
     31 C         142.5243  143.0098  170.0628 C.ar    1  UNL1        0.0031
     32 C         141.0945  143.3074  169.7203 C.ar    1  UNL1        0.0002
     33 C         140.3791  142.4744  168.6984 C.ar    1  UNL1        0.0029
     34 C         141.0934  141.3439  168.0190 C.ar    1  UNL1        0.0349
@<TRIPOS>BOND
     1    23    24    3
     2    24    17    1
     3    17    18   ar
     4    18    19   ar
     5    19    20   ar
     6    20    14    1
     7    14    15    2
     8    14    16    2
     9    14    12    1
    10    12    11    1
    11    11    10    1
    12    10     1    1
    13     1     2    1
    14     2     3    1
    15     3     4    1
    16     4     5    1
    17     5    25    1
    18    25    26    1
    19    26    27   ar
    20    27    28   ar
    21    28    29   ar
    22    29    30   ar
    23    30    31   ar
    24    31    32   ar
    25    32    33   ar
    26    33    34   ar
    27     5     6    1
    28     6     7    1
    29     7     8    1
    30     7     9    1
    31    20    21   ar
    32    21    22   ar
    33    22    17   ar
    34     8     1    1
    35     9     3    1
    36    34    26   ar
    37    34    29   ar
    38    12    13    1
@<TRIPOS>MOLECULE
*****
 34 38 0 0 0
SMALL
GASTEIGER

@<TRIPOS>ATOM
      1 N         140.2496  139.2767  158.6550 N.3     1  UNL1       -0.2673
      2 C         139.5497  138.5395  159.7580 C.3     1  UNL1        0.1035
      3 C         138.8342  139.3021  160.8334 C.3     1  UNL1        0.1470
      4 C         138.1186  140.0646  161.9089 C.3     1  UNL1        0.1037
      5 N         138.1030  141.5643  161.8812 N.3     1  UNL1       -0.2646
      6 C         138.8029  142.3014  160.7781 C.3     1  UNL1        0.1037
      7 C         139.5184  141.5389  159.7027 C.3     1  UNL1        0.1470
      8 C         140.2340  140.7763  158.6273 C.3     1  UNL1        0.1035
      9 O         138.8185  140.8017  160.8058 O.3     1  UNL1       -0.3530
     10 C         140.9651  138.5141  157.5795 C.3     1  UNL1        0.0913
     11 C         142.2903  137.8739  157.8691 C.3     1  UNL1        0.1087
     12 N         143.3423  138.6341  158.6211 N.3     1  UNL1       -0.1780
     13 H         144.2423  138.2381  158.3499 H       1  UNL1        0.1488
     14 S         143.3172  138.6654  160.1205 S.O2    1  UNL1        0.0603
     15 O         143.6505  140.1276  160.0956 O.2     1  UNL1       -0.1530
     16 O         142.9839  137.2032  160.1455 O.2     1  UNL1       -0.1530
     17 C         143.2421  138.7593  164.6189 C.ar    1  UNL1        0.0685
     18 C         142.1720  138.0257  163.8661 C.ar    1  UNL1        0.0116
     19 C         142.1970  137.9944  162.3666 C.ar    1  UNL1        0.0206
     20 C         143.2921  138.6967  161.6200 C.ar    1  UNL1        0.1220
     21 C         144.3623  139.4303  162.3729 C.ar    1  UNL1        0.0206
     22 C         144.3372  139.4615  163.8723 C.ar    1  UNL1        0.0116
     23 N         143.1920  138.8218  167.6179 N.1     1  UNL1       -0.1908
     24 C         143.2170  138.7905  166.1184 C.1     1  UNL1        0.1004
     25 C         137.3874  142.3268  162.9566 C.3     1  UNL1        0.1025
     26 C         138.1675  142.9775  164.0604 C.ar    1  UNL1        0.0344
     27 C         138.3193  144.4534  164.2812 C.ar    1  UNL1        0.1766
     28 O         139.1783  144.6546  165.4944 O.2     1  UNL1       -0.4507
     29 C         139.5573  143.3030  166.0233 C.ar    1  UNL1        0.1452
     30 C         140.3905  142.8822  167.1975 C.ar    1  UNL1        0.0375
     31 C         140.5990  141.4250  167.4854 C.ar    1  UNL1        0.0031
     32 C         139.9743  140.3884  166.5991 C.ar    1  UNL1        0.0002
     33 C         139.1410  140.8093  165.4250 C.ar    1  UNL1        0.0029
     34 C         138.9325  142.2665  165.1371 C.ar    1  UNL1        0.0349
@<TRIPOS>BOND
     1    23    24    3
     2    24    17    1
     3    17    18   ar
     4    18    19   ar
     5    19    20   ar
     6    20    14    1
     7    14    15    2
     8    14    16    2
     9    14    12    1
    10    12    11    1
    11    11    10    1
    12    10     1    1
    13     1     2    1
    14     2     3    1
    15     3     4    1
    16     4     5    1
    17     5    25    1
    18    25    26    1
    19    26    27   ar
    20    27    28   ar
    21    28    29   ar
    22    29    30   ar
    23    30    31   ar
    24    31    32   ar
    25    32    33   ar
    26    33    34   ar
    27     5     6    1
    28     6     7    1
    29     7     8    1
    30     7     9    1
    31    20    21   ar
    32    21    22   ar
    33    22    17   ar
    34     8     1    1
    35     9     3    1
    36    34    26   ar
    37    34    29   ar
    38    12    13    1
@<TRIPOS>MOLECULE
*****
 34 38 0 0 0
SMALL
GASTEIGER

@<TRIPOS>ATOM
      1 N         141.5661  143.1154  160.7538 N.3     1  UNL1       -0.2673
      2 C         141.5557  144.2476  161.7376 C.3     1  UNL1        0.1035
      3 C         142.0142  144.0202  163.1476 C.3     1  UNL1        0.1470
      4 C         142.4726  143.7927  164.5577 C.3     1  UNL1        0.1037
      5 N         142.9414  142.4331  164.9838 N.3     1  UNL1       -0.2646
      6 C         142.9518  141.3009  163.9999 C.3     1  UNL1        0.1037
      7 C         142.4934  141.5283  162.5899 C.3     1  UNL1        0.1470
      8 C         142.0349  141.7558  161.1799 C.3     1  UNL1        0.1035
      9 O         142.4830  142.6605  163.5737 O.3     1  UNL1       -0.3530
     10 C         141.1077  143.3428  159.3437 C.3     1  UNL1        0.0913
     11 C         139.7114  143.8216  159.0770 C.3     1  UNL1        0.1087
     12 N         138.5425  142.9327  159.3829 N.3     1  UNL1       -0.1780
     13 H         137.7048  143.5086  159.2991 H       1  UNL1        0.1488
     14 S         138.4574  142.2349  160.7080 S.O2    1  UNL1        0.0603
     15 O         138.8160  140.9368  160.0474 O.2     1  UNL1       -0.1530
     16 O         138.0988  143.5329  161.3686 O.2     1  UNL1       -0.1530
     17 C         138.2022  140.1413  164.6831 C.ar    1  UNL1        0.0685
     18 C         138.2846  141.6380  164.6277 C.ar    1  UNL1        0.0116
     19 C         138.3697  142.3359  163.3026 C.ar    1  UNL1        0.0206
     20 C         138.3723  141.5370  162.0330 C.ar    1  UNL1        0.1220
     21 C         138.2900  140.0403  162.0885 C.ar    1  UNL1        0.0206
     22 C         138.2049  139.3424  163.4135 C.ar    1  UNL1        0.0116
     23 N         138.0321  138.7456  167.3333 N.1     1  UNL1       -0.1908
     24 C         138.1172  139.4435  166.0081 C.1     1  UNL1        0.1004
     25 C         143.3998  142.2057  166.3938 C.3     1  UNL1        0.1025
     26 C         142.6050  141.3203  167.3073 C.ar    1  UNL1        0.0344
     27 C         142.6472  139.8212  167.3387 C.ar    1  UNL1        0.1766
     28 O         141.6967  139.3529  168.4006 O.2     1  UNL1       -0.4507
     29 C         141.0672  140.5627  169.0253 C.ar    1  UNL1        0.1452
     30 C         140.0553  140.7142  170.1222 C.ar    1  UNL1        0.0375
     31 C         139.6048  142.0815  170.5434 C.ar    1  UNL1        0.0031
     32 C         140.1662  143.2974  169.8677 C.ar    1  UNL1        0.0002
     33 C         141.1780  143.1459  168.7708 C.ar    1  UNL1        0.0029
     34 C         141.6285  141.7785  168.3496 C.ar    1  UNL1        0.0349
@<TRIPOS>BOND
     1    23    24    3
     2    24    17    1
     3    17    18   ar
     4    18    19   ar
     5    19    20   ar
     6    20    14    1
     7    14    15    2
     8    14    16    2
     9    14    12    1
    10    12    11    1
    11    11    10    1
    12    10     1    1
    13     1     2    1
    14     2     3    1
    15     3     4    1
    16     4     5    1
    17     5    25    1
    18    25    26    1
    19    26    27   ar
    20    27    28   ar
    21    28    29   ar
    22    29    30   ar
    23    30    31   ar
    24    31    32   ar
    25    32    33   ar
    26    33    34   ar
    27     5     6    1
    28     6     7    1
    29     7     8    1
    30     7     9    1
    31    20    21   ar
    32    21    22   ar
    33    22    17   ar
    34     8     1    1
    35     9     3    1
    36    34    26   ar
    37    34    29   ar
    38    12    13    1
@<TRIPOS>MOLECULE
*****
 34 38 0 0 0
SMALL
GASTEIGER

@<TRIPOS>ATOM
      1 N         139.5222  142.4878  159.6076 N.3     1  UNL1       -0.2673
      2 C         138.2708  142.5145  160.4341 C.3     1  UNL1        0.1035
      3 C         138.0656  141.4973  161.5172 C.3     1  UNL1        0.1470
      4 C         137.8603  140.4801  162.6004 C.3     1  UNL1        0.1037
      5 N         138.9064  139.4361  162.8569 N.3     1  UNL1       -0.2646
      6 C         140.1579  139.4095  162.0303 C.3     1  UNL1        0.1037
      7 C         140.3631  140.4267  160.9472 C.3     1  UNL1        0.1470
      8 C         140.5684  141.4439  159.8641 C.3     1  UNL1        0.1035
      9 O         139.1117  140.4534  161.7738 O.3     1  UNL1       -0.3530
     10 C         139.7275  143.5050  158.5244 C.3     1  UNL1        0.0913
     11 C         140.8757  144.4667  158.6066 C.3     1  UNL1        0.1087
     12 N         140.9232  145.4861  159.7060 N.3     1  UNL1       -0.1780
     13 H         141.8222  145.9616  159.6281 H       1  UNL1        0.1488
     14 S         140.7843  145.0541  161.1357 S.O2    1  UNL1        0.0603
     15 O         142.1148  144.3659  161.0570 O.2     1  UNL1       -0.1530
     16 O         139.4539  145.7423  161.2145 O.2     1  UNL1       -0.1530
     17 C         140.3678  143.7582  165.4249 C.ar    1  UNL1        0.0685
     18 C         139.2806  144.5620  164.7754 C.ar    1  UNL1        0.0116
     19 C         139.4194  144.9939  163.3456 C.ar    1  UNL1        0.0206
     20 C         140.6455  144.6222  162.5654 C.ar    1  UNL1        0.1220
     21 C         141.7327  143.8184  163.2151 C.ar    1  UNL1        0.0206
     22 C         141.5939  143.3864  164.6448 C.ar    1  UNL1        0.0116
     23 N         140.0901  142.8943  168.2844 N.1     1  UNL1       -0.1908
     24 C         140.2290  143.3263  166.8546 C.1     1  UNL1        0.1004
     25 C         138.7012  138.4189  163.9400 C.3     1  UNL1        0.1025
     26 C         138.9678  138.7825  165.3707 C.ar    1  UNL1        0.0344
     27 C         137.9605  138.7849  166.4821 C.ar    1  UNL1        0.1766
     28 O         138.6587  139.2113  167.7395 O.2     1  UNL1       -0.4507
     29 C         140.0975  139.4724  167.4050 C.ar    1  UNL1        0.1452
     30 C         141.2583  139.9173  168.2443 C.ar    1  UNL1        0.0375
     31 C         142.6101  140.0971  167.6197 C.ar    1  UNL1        0.0031
     32 C         142.8012  139.8320  166.1557 C.ar    1  UNL1        0.0002
     33 C         141.6403  139.3872  165.3164 C.ar    1  UNL1        0.0029
     34 C         140.2885  139.2074  165.9410 C.ar    1  UNL1        0.0349
@<TRIPOS>BOND
     1    23    24    3
     2    24    17    1
     3    17    18   ar
     4    18    19   ar
     5    19    20   ar
     6    20    14    1
     7    14    15    2
     8    14    16    2
     9    14    12    1
    10    12    11    1
    11    11    10    1
    12    10     1    1
    13     1     2    1
    14     2     3    1
    15     3     4    1
    16     4     5    1
    17     5    25    1
    18    25    26    1
    19    26    27   ar
    20    27    28   ar
    21    28    29   ar
    22    29    30   ar
    23    30    31   ar
    24    31    32   ar
    25    32    33   ar
    26    33    34   ar
    27     5     6    1
    28     6     7    1
    29     7     8    1
    30     7     9    1
    31    20    21   ar
    32    21    22   ar
    33    22    17   ar
    34     8     1    1
    35     9     3    1
    36    34    26   ar
    37    34    29   ar
    38    12    13    1
@<TRIPOS>MOLECULE
*****
 34 38 0 0 0
SMALL
GASTEIGER

@<TRIPOS>ATOM
      1 N         140.0669  139.6130  159.4890 N.3     1  UNL1       -0.2673
      2 C         139.3521  139.1857  158.2414 C.3     1  UNL1        0.1035
      3 C         140.0092  138.2294  157.2908 C.3     1  UNL1        0.1470
      4 C         140.6662  137.2730  156.3401 C.3     1  UNL1        0.1037
      5 N         142.0380  136.7439  156.6371 N.3     1  UNL1       -0.2646
      6 C         142.7527  137.1711  157.8847 C.3     1  UNL1        0.1037
      7 C         142.0957  138.1275  158.8353 C.3     1  UNL1        0.1470
      8 C         141.4387  139.0838  159.7859 C.3     1  UNL1        0.1035
      9 O         141.3809  137.7003  157.5877 O.3     1  UNL1       -0.3530
     10 C         139.4099  140.5694  160.4396 C.3     1  UNL1        0.0913
     11 C         138.1207  140.1950  161.1086 C.3     1  UNL1        0.1087
     12 N         138.0873  139.0633  162.0927 N.3     1  UNL1       -0.1780
     13 H         137.1463  138.6712  162.0586 H       1  UNL1        0.1488
     14 S         138.3987  139.3167  163.5379 S.O2    1  UNL1        0.0603
     15 O         139.1422  138.0157  163.6058 O.2     1  UNL1       -0.1530
     16 O         137.6551  140.6176  163.4700 O.2     1  UNL1       -0.1530
     17 C         139.3329  140.0768  167.8737 C.ar    1  UNL1        0.0685
     18 C         138.2913  139.0653  167.4971 C.ar    1  UNL1        0.0116
     19 C         137.9799  138.8119  166.0518 C.ar    1  UNL1        0.0206
     20 C         138.7101  139.5701  164.9832 C.ar    1  UNL1        0.1220
     21 C         139.7517  140.5816  165.3598 C.ar    1  UNL1        0.0206
     22 C         140.0631  140.8350  166.8051 C.ar    1  UNL1        0.0116
     23 N         139.9557  140.5835  170.7643 N.1     1  UNL1       -0.1908
     24 C         139.6443  140.3302  169.3190 C.1     1  UNL1        0.1004
     25 C         142.6950  135.7875  155.6865 C.3     1  UNL1        0.1025
     26 C         142.4103  134.3180  155.7846 C.ar    1  UNL1        0.0344
     27 C         141.2520  133.6006  155.1571 C.ar    1  UNL1        0.1766
     28 O         141.3597  132.1471  155.5121 O.2     1  UNL1       -0.4507
     29 C         142.5846  131.9664  156.3590 C.ar    1  UNL1        0.1452
     30 C         143.1926  130.7534  156.9986 C.ar    1  UNL1        0.0375
     31 C         144.4498  130.8821  157.8065 C.ar    1  UNL1        0.0031
     32 C         145.0991  132.2239  157.9749 C.ar    1  UNL1        0.0002
     33 C         144.4911  133.4368  157.3353 C.ar    1  UNL1        0.0029
     34 C         143.2338  133.3081  156.5274 C.ar    1  UNL1        0.0349
@<TRIPOS>BOND
     1    23    24    3
     2    24    17    1
     3    17    18   ar
     4    18    19   ar
     5    19    20   ar
     6    20    14    1
     7    14    15    2
     8    14    16    2
     9    14    12    1
    10    12    11    1
    11    11    10    1
    12    10     1    1
    13     1     2    1
    14     2     3    1
    15     3     4    1
    16     4     5    1
    17     5    25    1
    18    25    26    1
    19    26    27   ar
    20    27    28   ar
    21    28    29   ar
    22    29    30   ar
    23    30    31   ar
    24    31    32   ar
    25    32    33   ar
    26    33    34   ar
    27     5     6    1
    28     6     7    1
    29     7     8    1
    30     7     9    1
    31    20    21   ar
    32    21    22   ar
    33    22    17   ar
    34     8     1    1
    35     9     3    1
    36    34    26   ar
    37    34    29   ar
    38    12    13    1
@<TRIPOS>MOLECULE
*****
 34 38 0 0 0
SMALL
GASTEIGER

@<TRIPOS>ATOM
      1 N         141.5994  142.0859  159.4535 N.3     1  UNL1       -0.2673
      2 C         141.6508  140.6112  159.7230 C.3     1  UNL1        0.1035
      3 C         142.4264  140.0898  160.8962 C.3     1  UNL1        0.1470
      4 C         143.2020  139.5683  162.0695 C.3     1  UNL1        0.1037
      5 N         143.9263  140.5216  162.9732 N.3     1  UNL1       -0.2646
      6 C         143.8749  141.9963  162.7037 C.3     1  UNL1        0.1037
      7 C         143.0993  142.5177  161.5305 C.3     1  UNL1        0.1470
      8 C         142.3237  143.0392  160.3573 C.3     1  UNL1        0.1035
      9 O         143.1506  141.0431  161.8000 O.3     1  UNL1       -0.3530
     10 C         140.8238  142.6074  158.2802 C.3     1  UNL1        0.0913
     11 C         139.3268  142.5128  158.2689 C.3     1  UNL1        0.1087
     12 N         138.5300  143.0935  159.3994 N.3     1  UNL1       -0.1780
     13 H         138.9223  144.0148  159.5934 H       1  UNL1        0.1488
     14 S         138.4528  142.3707  160.7115 S.O2    1  UNL1        0.0603
     15 O         138.2358  141.0762  159.9856 O.2     1  UNL1       -0.1530
     16 O         138.6699  143.6653  161.4373 O.2     1  UNL1       -0.1530
     17 C         138.2214  140.2025  164.6478 C.ar    1  UNL1        0.0685
     18 C         138.5374  139.4454  163.3921 C.ar    1  UNL1        0.0116
     19 C         138.6146  140.1682  162.0799 C.ar    1  UNL1        0.0206
     20 C         138.3757  141.6480  162.0236 C.ar    1  UNL1        0.1220
     21 C         138.0597  142.4050  163.2794 C.ar    1  UNL1        0.0206
     22 C         137.9825  141.6822  164.5915 C.ar    1  UNL1        0.0116
     23 N         138.0671  138.7569  167.2721 N.1     1  UNL1       -0.1908
     24 C         138.1443  139.4797  165.9599 C.1     1  UNL1        0.1004
     25 C         144.7019  140.0001  164.1465 C.3     1  UNL1        0.1025
     26 C         143.9843  139.5969  165.4005 C.ar    1  UNL1        0.0344
     27 C         144.2408  138.3556  166.2026 C.ar    1  UNL1        0.1766
     28 O         143.2994  138.3556  167.3705 O.2     1  UNL1       -0.4507
     29 C         142.4611  139.5969  167.2900 C.ar    1  UNL1        0.1452
     30 C         141.3669  140.1278  168.1681 C.ar    1  UNL1        0.0375
     31 C         140.6962  141.4258  167.8287 C.ar    1  UNL1        0.0031
     32 C         141.1195  142.1930  166.6111 C.ar    1  UNL1        0.0002
     33 C         142.2136  141.6621  165.7331 C.ar    1  UNL1        0.0029
     34 C         142.8844  140.3640  166.0725 C.ar    1  UNL1        0.0349
@<TRIPOS>BOND
     1    23    24    3
     2    24    17    1
     3    17    18   ar
     4    18    19   ar
     5    19    20   ar
     6    20    14    1
     7    14    15    2
     8    14    16    2
     9    14    12    1
    10    12    11    1
    11    11    10    1
    12    10     1    1
    13     1     2    1
    14     2     3    1
    15     3     4    1
    16     4     5    1
    17     5    25    1
    18    25    26    1
    19    26    27   ar
    20    27    28   ar
    21    28    29   ar
    22    29    30   ar
    23    30    31   ar
    24    31    32   ar
    25    32    33   ar
    26    33    34   ar
    27     5     6    1
    28     6     7    1
    29     7     8    1
    30     7     9    1
    31    20    21   ar
    32    21    22   ar
    33    22    17   ar
    34     8     1    1
    35     9     3    1
    36    34    26   ar
    37    34    29   ar
    38    12    13    1
@<TRIPOS>MOLECULE
*****
 34 38 0 0 0
SMALL
GASTEIGER

@<TRIPOS>ATOM
      1 N         140.4270  139.0738  158.9675 N.3     1  UNL1       -0.2673
      2 C         139.4845  138.3881  159.9116 C.3     1  UNL1        0.1035
      3 C         138.7420  139.1865  160.9418 C.3     1  UNL1        0.1470
      4 C         137.9995  139.9848  161.9721 C.3     1  UNL1        0.1037
      5 N         138.1997  141.4689  162.0582 N.3     1  UNL1       -0.2646
      6 C         139.1423  142.1547  161.1140 C.3     1  UNL1        0.1037
      7 C         139.8847  141.3563  160.0838 C.3     1  UNL1        0.1470
      8 C         140.6271  140.5579  159.0536 C.3     1  UNL1        0.1035
      9 O         138.9421  140.6706  161.0279 O.3     1  UNL1       -0.3530
     10 C         141.1695  138.2754  157.9373 C.3     1  UNL1        0.0913
     11 C         142.6278  137.9794  158.1257 C.3     1  UNL1        0.1087
     12 N         143.1391  137.5537  159.4702 N.3     1  UNL1       -0.1780
     13 H         142.4528  136.9042  159.8541 H       1  UNL1        0.1488
     14 S         143.4045  138.5803  160.5311 S.O2    1  UNL1        0.0603
     15 O         144.1724  139.4050  159.5410 O.2     1  UNL1       -0.1530
     16 O         142.6366  137.7557  161.5211 O.2     1  UNL1       -0.1530
     17 C         144.2004  141.6602  163.7140 C.ar    1  UNL1        0.0685
     18 C         144.3310  142.0276  162.2655 C.ar    1  UNL1        0.0116
     19 C         144.0657  141.0009  161.2045 C.ar    1  UNL1        0.0206
     20 C         143.6698  139.6069  161.5920 C.ar    1  UNL1        0.1220
     21 C         143.5392  139.2396  163.0405 C.ar    1  UNL1        0.0206
     22 C         143.8046  140.2662  164.1014 C.ar    1  UNL1        0.0116
     23 N         144.7310  143.7135  165.8359 N.1     1  UNL1       -0.1908
     24 C         144.4658  142.6868  164.7749 C.1     1  UNL1        0.1004
     25 C         137.4572  142.2673  163.0884 C.3     1  UNL1        0.1025
     26 C         138.2036  142.9122  164.2185 C.ar    1  UNL1        0.0344
     27 C         138.0982  144.3483  164.6387 C.ar    1  UNL1        0.1766
     28 O         139.0158  144.5580  165.8068 O.2     1  UNL1       -0.4507
     29 C         139.6882  143.2514  166.1083 C.ar    1  UNL1        0.1452
     30 C         140.6928  142.8565  167.1498 C.ar    1  UNL1        0.0375
     31 C         141.1954  141.4446  167.2098 C.ar    1  UNL1        0.0031
     32 C         140.6934  140.4274  166.2282 C.ar    1  UNL1        0.0002
     33 C         139.6888  140.8223  165.1866 C.ar    1  UNL1        0.0029
     34 C         139.1862  142.2344  165.1267 C.ar    1  UNL1        0.0349
@<TRIPOS>BOND
     1    23    24    3
     2    24    17    1
     3    17    18   ar
     4    18    19   ar
     5    19    20   ar
     6    20    14    1
     7    14    15    2
     8    14    16    2
     9    14    12    1
    10    12    11    1
    11    11    10    1
    12    10     1    1
    13     1     2    1
    14     2     3    1
    15     3     4    1
    16     4     5    1
    17     5    25    1
    18    25    26    1
    19    26    27   ar
    20    27    28   ar
    21    28    29   ar
    22    29    30   ar
    23    30    31   ar
    24    31    32   ar
    25    32    33   ar
    26    33    34   ar
    27     5     6    1
    28     6     7    1
    29     7     8    1
    30     7     9    1
    31    20    21   ar
    32    21    22   ar
    33    22    17   ar
    34     8     1    1
    35     9     3    1
    36    34    26   ar
    37    34    29   ar
    38    12    13    1
