@<TRIPOS>MOLECULE
*****
 30 34 0 0 0
SMALL
GASTEIGER

@<TRIPOS>ATOM
      1 C         142.6041  137.7656  158.1031 C.ar    1  UNL1        0.1233
      2 C         142.7397  136.4027  157.4916 C.ar    1  UNL1        0.1179
      3 N         143.5891  136.5289  156.2617 N.ar    1  UNL1       -0.2257
      4 N         143.9785  137.9698  156.1131 N.ar    1  UNL1       -0.0635
      5 N         143.3698  138.7342  157.2511 N.ar    1  UNL1       -0.1287
      6 C         141.6933  138.2151  161.9395 C.ar    1  UNL1        0.1547
      7 C         142.4598  137.8796  160.6946 C.ar    1  UNL1        0.0400
      8 C         141.8375  138.1012  159.3480 C.ar    1  UNL1        0.0241
      9 C         140.4486  138.6584  159.2462 C.ar    1  UNL1        0.0033
     10 C         139.6820  138.9939  160.4911 C.ar    1  UNL1        0.0207
     11 C         140.3044  138.7722  161.8377 C.ar    1  UNL1        0.0994
     12 N         139.5378  139.1078  163.0826 N.ar    1  UNL1       -0.2839
     13 C         138.9496  140.4452  163.4224 C.ar    1  UNL1        0.1826
     14 N         138.2731  140.3288  164.7561 N.ar    1  UNL1       -0.2280
     15 C         138.4431  138.9194  165.2406 C.ar    1  UNL1        0.0786
     16 C         137.9229  138.3625  166.5326 C.3     1  UNL1        0.0538
     17 C         139.2247  138.1648  164.2064 C.ar    1  UNL1        0.0963
     18 C         143.4435  138.8698  163.7446 C.3     1  UNL1        0.2525
     19 O         142.3157  137.9934  163.2862 O.3     1  UNL1       -0.4700
     20 C         143.9804  135.4105  155.3419 C.3     1  UNL1        0.1571
     21 C         143.1860  134.1382  155.3278 C.ar    1  UNL1        0.0198
     22 C         141.9778  134.0180  154.4470 C.ar    1  UNL1       -0.0008
     23 C         141.1835  132.7457  154.4329 C.ar    1  UNL1       -0.0002
     24 C         141.5972  131.5936  155.2997 C.ar    1  UNL1        0.0015
     25 C         142.8054  131.7137  156.1806 C.ar    1  UNL1        0.0174
     26 C         143.2192  130.5616  157.0473 C.ar    1  UNL1        0.0031
     27 C         144.4273  130.6817  157.9282 C.ar    1  UNL1        0.0207
     28 C         145.2217  131.9540  157.9422 C.ar    1  UNL1        0.0988
     29 N         144.8079  133.1062  157.0755 N.ar    1  UNL1       -0.2441
     30 C         143.5998  132.9860  156.1946 C.ar    1  UNL1        0.0792
@<TRIPOS>BOND
     1    18    19    1
     2    19     6    1
     3     6     7   ar
     4     7     8   ar
     5     8     1    1
     6     1     2   ar
     7     2     3   ar
     8     3    20    1
     9    20    21    1
    10    21    22   ar
    11    22    23   ar
    12    23    24   ar
    13    24    25   ar
    14    25    26   ar
    15    26    27   ar
    16    27    28   ar
    17    28    29   ar
    18    29    30   ar
    19     3     4   ar
    20     4     5   ar
    21     8     9   ar
    22     9    10   ar
    23    10    11   ar
    24    11    12    1
    25    12    13   ar
    26    13    14   ar
    27    14    15   ar
    28    15    16    1
    29    15    17   ar
    30    11     6   ar
    31    17    12   ar
    32     5     1   ar
    33    30    21   ar
    34    30    25   ar
@<TRIPOS>MOLECULE
*****
 30 34 0 0 0
SMALL
GASTEIGER

@<TRIPOS>ATOM
      1 C         140.3384  138.4329  159.9991 C.ar    1  UNL1        0.1233
      2 C         141.7037  138.2714  159.3992 C.ar    1  UNL1        0.1179
      3 N         141.5439  138.1310  157.9143 N.ar    1  UNL1       -0.2257
      4 N         140.0798  138.2057  157.5966 N.ar    1  UNL1       -0.0635
      5 N         139.3348  138.3923  158.8850 N.ar    1  UNL1       -0.1287
      6 C         138.6747  139.7575  163.3498 C.ar    1  UNL1        0.1547
      7 C         138.9823  139.5855  161.8918 C.ar    1  UNL1        0.0400
      8 C         140.0308  138.6049  161.4571 C.ar    1  UNL1        0.0241
      9 C         140.7716  137.7962  162.4805 C.ar    1  UNL1        0.0033
     10 C         140.4639  137.9681  163.9384 C.ar    1  UNL1        0.0207
     11 C         139.4154  138.9488  164.3731 C.ar    1  UNL1        0.0994
     12 N         139.1078  139.1208  165.8311 N.ar    1  UNL1       -0.2839
     13 C         137.9410  138.5255  166.5622 C.ar    1  UNL1        0.1826
     14 N         138.0249  138.9550  167.9970 N.ar    1  UNL1       -0.2280
     15 C         139.2436  139.8157  168.1526 C.ar    1  UNL1        0.0786
     16 C         139.7110  140.4606  169.4236 C.3     1  UNL1        0.0538
     17 C         139.9128  139.9181  166.8141 C.ar    1  UNL1        0.0963
     18 C         137.3752  141.9758  162.9750 C.3     1  UNL1        0.2525
     19 O         137.6262  140.7381  163.7845 O.3     1  UNL1       -0.4700
     20 C         142.6533  137.9480  156.9216 C.3     1  UNL1        0.1571
     21 C         142.5116  136.9454  155.8148 C.ar    1  UNL1        0.0198
     22 C         142.0239  137.3821  154.4652 C.ar    1  UNL1       -0.0008
     23 C         141.8822  136.3796  153.3585 C.ar    1  UNL1       -0.0002
     24 C         142.2282  134.9404  153.6013 C.ar    1  UNL1        0.0015
     25 C         142.7159  134.5037  154.9510 C.ar    1  UNL1        0.0174
     26 C         143.0619  133.0645  155.1938 C.ar    1  UNL1        0.0031
     27 C         143.5496  132.6279  156.5434 C.ar    1  UNL1        0.0207
     28 C         143.6913  133.6304  157.6502 C.ar    1  UNL1        0.0988
     29 N         143.3453  135.0696  157.4073 N.ar    1  UNL1       -0.2441
     30 C         142.8576  135.5062  156.0577 C.ar    1  UNL1        0.0792
@<TRIPOS>BOND
     1    18    19    1
     2    19     6    1
     3     6     7   ar
     4     7     8   ar
     5     8     1    1
     6     1     2   ar
     7     2     3   ar
     8     3    20    1
     9    20    21    1
    10    21    22   ar
    11    22    23   ar
    12    23    24   ar
    13    24    25   ar
    14    25    26   ar
    15    26    27   ar
    16    27    28   ar
    17    28    29   ar
    18    29    30   ar
    19     3     4   ar
    20     4     5   ar
    21     8     9   ar
    22     9    10   ar
    23    10    11   ar
    24    11    12    1
    25    12    13   ar
    26    13    14   ar
    27    14    15   ar
    28    15    16    1
    29    15    17   ar
    30    11     6   ar
    31    17    12   ar
    32     5     1   ar
    33    30    21   ar
    34    30    25   ar
@<TRIPOS>MOLECULE
*****
 30 34 0 0 0
SMALL
GASTEIGER

@<TRIPOS>ATOM
      1 C         142.8672  137.5888  157.4976 C.ar    1  UNL1        0.1233
      2 C         142.2154  138.0558  158.7653 C.ar    1  UNL1        0.1179
      3 N         142.7707  139.4082  159.1011 N.ar    1  UNL1       -0.2257
      4 N         143.7657  139.7771  158.0410 N.ar    1  UNL1       -0.0635
      5 N         143.8254  138.6527  157.0500 N.ar    1  UNL1       -0.1287
      6 C         143.1558  133.7714  156.4521 C.ar    1  UNL1        0.1547
      7 C         143.4163  135.0735  157.1496 C.ar    1  UNL1        0.0400
      8 C         142.6067  136.2868  156.8000 C.ar    1  UNL1        0.0241
      9 C         141.5364  136.1979  155.7528 C.ar    1  UNL1        0.0033
     10 C         141.2759  134.8959  155.0552 C.ar    1  UNL1        0.0207
     11 C         142.0856  133.6826  155.4049 C.ar    1  UNL1        0.0994
     12 N         141.8250  132.3805  154.7073 N.ar    1  UNL1       -0.2839
     13 C         142.6308  131.8080  153.5789 C.ar    1  UNL1        0.1826
     14 N         142.0168  130.4959  153.1899 N.ar    1  UNL1       -0.2280
     15 C         140.8315  130.2574  154.0778 C.ar    1  UNL1        0.0786
     16 C         139.9241  129.0638  154.0353 C.3     1  UNL1        0.0538
     17 C         140.7130  131.4221  155.0156 C.ar    1  UNL1        0.0963
     18 C         144.9498  132.6135  157.9323 C.3     1  UNL1        0.2525
     19 O         143.9655  132.5581  156.8017 O.3     1  UNL1       -0.4700
     20 C         142.3966  140.2448  160.2886 C.3     1  UNL1        0.1571
     21 C         143.0158  139.9676  161.6264 C.ar    1  UNL1        0.0198
     22 C         144.3152  140.6169  162.0005 C.ar    1  UNL1       -0.0008
     23 C         144.9344  140.3397  163.3383 C.ar    1  UNL1       -0.0002
     24 C         144.2542  139.4130  164.3020 C.ar    1  UNL1        0.0015
     25 C         142.9548  138.7636  163.9279 C.ar    1  UNL1        0.0174
     26 C         142.2746  137.8370  164.8916 C.ar    1  UNL1        0.0031
     27 C         140.9753  137.1877  164.5175 C.ar    1  UNL1        0.0207
     28 C         140.3561  137.4650  163.1797 C.ar    1  UNL1        0.0988
     29 N         141.0363  138.3916  162.2160 N.ar    1  UNL1       -0.2441
     30 C         142.3356  139.0409  162.5901 C.ar    1  UNL1        0.0792
@<TRIPOS>BOND
     1    18    19    1
     2    19     6    1
     3     6     7   ar
     4     7     8   ar
     5     8     1    1
     6     1     2   ar
     7     2     3   ar
     8     3    20    1
     9    20    21    1
    10    21    22   ar
    11    22    23   ar
    12    23    24   ar
    13    24    25   ar
    14    25    26   ar
    15    26    27   ar
    16    27    28   ar
    17    28    29   ar
    18    29    30   ar
    19     3     4   ar
    20     4     5   ar
    21     8     9   ar
    22     9    10   ar
    23    10    11   ar
    24    11    12    1
    25    12    13   ar
    26    13    14   ar
    27    14    15   ar
    28    15    16    1
    29    15    17   ar
    30    11     6   ar
    31    17    12   ar
    32     5     1   ar
    33    30    21   ar
    34    30    25   ar
@<TRIPOS>MOLECULE
*****
 30 34 0 0 0
SMALL
GASTEIGER

@<TRIPOS>ATOM
      1 C         143.5005  142.1173  162.1772 C.ar    1  UNL1        0.1233
      2 C         142.7994  141.3900  163.2860 C.ar    1  UNL1        0.1179
      3 N         143.8434  140.8316  164.2069 N.ar    1  UNL1       -0.2257
      4 N         145.1898  141.2138  163.6673 N.ar    1  UNL1       -0.0635
      5 N         144.9779  142.0085  162.4129 N.ar    1  UNL1       -0.1287
      6 C         141.0444  144.4850  160.1495 C.ar    1  UNL1        0.1547
      7 C         141.7047  143.7737  161.2932 C.ar    1  UNL1        0.0400
      8 C         142.8402  142.8287  161.0335 C.ar    1  UNL1        0.0241
      9 C         143.3154  142.5950  159.6301 C.ar    1  UNL1        0.0033
     10 C         142.6551  143.3063  158.4864 C.ar    1  UNL1        0.0207
     11 C         141.5196  144.2513  158.7462 C.ar    1  UNL1        0.0994
     12 N         140.8593  144.9626  157.6025 N.ar    1  UNL1       -0.2839
     13 C         141.4043  146.1545  156.8727 C.ar    1  UNL1        0.1826
     14 N         140.4199  146.5355  155.8070 N.ar    1  UNL1       -0.2280
     15 C         139.2664  145.5791  155.8781 C.ar    1  UNL1        0.0786
     16 C         138.0543  145.5925  154.9946 C.3     1  UNL1        0.0538
     17 C         139.5380  144.6071  156.9878 C.ar    1  UNL1        0.0963
     18 C         139.7956  146.1196  161.7366 C.3     1  UNL1        0.2525
     19 O         139.9089  145.4301  160.4093 O.3     1  UNL1       -0.4700
     20 C         143.5863  140.0314  165.4493 C.3     1  UNL1        0.1571
     21 C         142.4167  140.3647  166.3274 C.ar    1  UNL1        0.0198
     22 C         142.5516  141.4152  167.3895 C.ar    1  UNL1       -0.0008
     23 C         141.3820  141.7485  168.2676 C.ar    1  UNL1       -0.0002
     24 C         140.0775  141.0312  168.0835 C.ar    1  UNL1        0.0015
     25 C         139.9426  139.9807  167.0213 C.ar    1  UNL1        0.0174
     26 C         138.6381  139.2635  166.8372 C.ar    1  UNL1        0.0031
     27 C         138.5033  138.2130  165.7751 C.ar    1  UNL1        0.0207
     28 C         139.6729  137.8797  164.8970 C.ar    1  UNL1        0.0988
     29 N         140.9773  138.5969  165.0811 N.ar    1  UNL1       -0.2441
     30 C         141.1122  139.6474  166.1433 C.ar    1  UNL1        0.0792
@<TRIPOS>BOND
     1    18    19    1
     2    19     6    1
     3     6     7   ar
     4     7     8   ar
     5     8     1    1
     6     1     2   ar
     7     2     3   ar
     8     3    20    1
     9    20    21    1
    10    21    22   ar
    11    22    23   ar
    12    23    24   ar
    13    24    25   ar
    14    25    26   ar
    15    26    27   ar
    16    27    28   ar
    17    28    29   ar
    18    29    30   ar
    19     3     4   ar
    20     4     5   ar
    21     8     9   ar
    22     9    10   ar
    23    10    11   ar
    24    11    12    1
    25    12    13   ar
    26    13    14   ar
    27    14    15   ar
    28    15    16    1
    29    15    17   ar
    30    11     6   ar
    31    17    12   ar
    32     5     1   ar
    33    30    21   ar
    34    30    25   ar
@<TRIPOS>MOLECULE
*****
 30 34 0 0 0
SMALL
GASTEIGER

@<TRIPOS>ATOM
      1 C         138.1854  141.2974  159.9160 C.ar    1  UNL1        0.1233
      2 C         137.9403  140.3131  158.8110 C.ar    1  UNL1        0.1179
      3 N         137.8831  141.0721  157.5184 N.ar    1  UNL1       -0.2257
      4 N         138.0929  142.5254  157.8246 N.ar    1  UNL1       -0.0635
      5 N         138.2797  142.6647  159.3064 N.ar    1  UNL1       -0.1287
      6 C         138.3160  141.7332  163.8584 C.ar    1  UNL1        0.1547
      7 C         138.1877  142.0590  162.3999 C.ar    1  UNL1        0.0400
      8 C         138.3137  140.9715  161.3746 C.ar    1  UNL1        0.0241
      9 C         138.5679  139.5581  161.8078 C.ar    1  UNL1        0.0033
     10 C         138.6962  139.2323  163.2663 C.ar    1  UNL1        0.0207
     11 C         138.5702  140.3199  164.2916 C.ar    1  UNL1        0.0994
     12 N         138.6985  139.9941  165.7502 N.ar    1  UNL1       -0.2839
     13 C         137.8370  139.0363  166.5188 C.ar    1  UNL1        0.1826
     14 N         138.3168  139.0191  167.9399 N.ar    1  UNL1       -0.2280
     15 C         139.4749  139.9663  168.0496 C.ar    1  UNL1        0.0786
     16 C         140.2592  140.2594  169.2941 C.3     1  UNL1        0.0538
     17 C         139.7107  140.5689  166.6963 C.ar    1  UNL1        0.0963
     18 C         137.8086  144.2088  164.4618 C.3     1  UNL1        0.2525
     19 O         138.1900  142.8208  164.8837 O.3     1  UNL1       -0.4700
     20 C         137.6561  140.4815  156.1584 C.3     1  UNL1        0.1571
     21 C         136.5037  140.9499  155.3202 C.ar    1  UNL1        0.0198
     22 C         136.7589  141.6965  154.0445 C.ar    1  UNL1       -0.0008
     23 C         135.6066  142.1649  153.2062 C.ar    1  UNL1       -0.0002
     24 C         134.1991  141.8868  153.6436 C.ar    1  UNL1        0.0015
     25 C         133.9438  141.1401  154.9194 C.ar    1  UNL1        0.0174
     26 C         132.5362  140.8620  155.3568 C.ar    1  UNL1        0.0031
     27 C         132.2810  140.1154  156.6325 C.ar    1  UNL1        0.0207
     28 C         133.4334  139.6469  157.4708 C.ar    1  UNL1        0.0988
     29 N         134.8409  139.9251  157.0333 N.ar    1  UNL1       -0.2441
     30 C         135.0961  140.6717  155.7577 C.ar    1  UNL1        0.0792
@<TRIPOS>BOND
     1    18    19    1
     2    19     6    1
     3     6     7   ar
     4     7     8   ar
     5     8     1    1
     6     1     2   ar
     7     2     3   ar
     8     3    20    1
     9    20    21    1
    10    21    22   ar
    11    22    23   ar
    12    23    24   ar
    13    24    25   ar
    14    25    26   ar
    15    26    27   ar
    16    27    28   ar
    17    28    29   ar
    18    29    30   ar
    19     3     4   ar
    20     4     5   ar
    21     8     9   ar
    22     9    10   ar
    23    10    11   ar
    24    11    12    1
    25    12    13   ar
    26    13    14   ar
    27    14    15   ar
    28    15    16    1
    29    15    17   ar
    30    11     6   ar
    31    17    12   ar
    32     5     1   ar
    33    30    21   ar
    34    30    25   ar
@<TRIPOS>MOLECULE
*****
 30 34 0 0 0
SMALL
GASTEIGER

@<TRIPOS>ATOM
      1 C         143.0034  138.2496  157.0823 C.ar    1  UNL1        0.1233
      2 C         141.9320  137.2029  157.0021 C.ar    1  UNL1        0.1179
      3 N         142.2604  136.2900  155.8581 N.ar    1  UNL1       -0.2257
      4 N         143.5348  136.7725  155.2312 N.ar    1  UNL1       -0.0635
      5 N         143.9941  137.9835  155.9878 N.ar    1  UNL1       -0.1287
      6 C         143.2259  140.1738  160.5460 C.ar    1  UNL1        0.1547
      7 C         143.1571  139.0572  159.5468 C.ar    1  UNL1        0.0400
      8 C         143.0722  139.3662  158.0815 C.ar    1  UNL1        0.0241
      9 C         143.0561  140.7918  157.6153 C.ar    1  UNL1        0.0033
     10 C         143.1249  141.9084  158.6145 C.ar    1  UNL1        0.0207
     11 C         143.2098  141.5994  160.0799 C.ar    1  UNL1        0.0994
     12 N         143.2786  142.7160  161.0791 N.ar    1  UNL1       -0.2839
     13 C         144.5312  143.3200  161.6416 C.ar    1  UNL1        0.1826
     14 N         144.1337  144.4020  162.6014 N.ar    1  UNL1       -0.2280
     15 C         142.6353  144.4668  162.6321 C.ar    1  UNL1        0.0786
     16 C         141.8103  145.4083  163.4585 C.3     1  UNL1        0.0538
     17 C         142.1069  143.4248  161.6913 C.ar    1  UNL1        0.0963
     18 C         143.7611  138.5085  162.4670 C.3     1  UNL1        0.2525
     19 O         143.3108  139.8648  162.0114 O.3     1  UNL1       -0.4700
     20 C         141.4556  135.1031  155.4182 C.3     1  UNL1        0.1571
     21 C         142.1493  133.8645  154.9336 C.ar    1  UNL1        0.0198
     22 C         141.8070  133.2897  153.5911 C.ar    1  UNL1       -0.0008
     23 C         142.5007  132.0512  153.1066 C.ar    1  UNL1       -0.0002
     24 C         143.5367  131.3874  153.9645 C.ar    1  UNL1        0.0015
     25 C         143.8790  131.9622  155.3072 C.ar    1  UNL1        0.0174
     26 C         144.9149  131.2984  156.1651 C.ar    1  UNL1        0.0031
     27 C         145.2572  131.8732  157.5077 C.ar    1  UNL1        0.0207
     28 C         144.5635  133.1118  157.9922 C.ar    1  UNL1        0.0988
     29 N         143.5276  133.7755  157.1342 N.ar    1  UNL1       -0.2441
     30 C         143.1853  133.2007  155.7917 C.ar    1  UNL1        0.0792
@<TRIPOS>BOND
     1    18    19    1
     2    19     6    1
     3     6     7   ar
     4     7     8   ar
     5     8     1    1
     6     1     2   ar
     7     2     3   ar
     8     3    20    1
     9    20    21    1
    10    21    22   ar
    11    22    23   ar
    12    23    24   ar
    13    24    25   ar
    14    25    26   ar
    15    26    27   ar
    16    27    28   ar
    17    28    29   ar
    18    29    30   ar
    19     3     4   ar
    20     4     5   ar
    21     8     9   ar
    22     9    10   ar
    23    10    11   ar
    24    11    12    1
    25    12    13   ar
    26    13    14   ar
    27    14    15   ar
    28    15    16    1
    29    15    17   ar
    30    11     6   ar
    31    17    12   ar
    32     5     1   ar
    33    30    21   ar
    34    30    25   ar
@<TRIPOS>MOLECULE
*****
 30 34 0 0 0
SMALL
GASTEIGER

@<TRIPOS>ATOM
      1 C         141.2781  138.4367  160.6935 C.ar    1  UNL1        0.1233
      2 C         142.4384  137.8567  159.9403 C.ar    1  UNL1        0.1179
      3 N         142.0447  137.7442  158.4972 N.ar    1  UNL1       -0.2257
      4 N         140.6411  138.2547  158.3585 N.ar    1  UNL1       -0.0635
      5 N         140.1672  138.6827  159.7159 N.ar    1  UNL1       -0.1287
      6 C         141.1259  140.4213  164.1268 C.ar    1  UNL1        0.1547
      7 C         141.1680  140.1372  162.6546 C.ar    1  UNL1        0.0400
      8 C         141.2359  138.7208  162.1657 C.ar    1  UNL1        0.0241
      9 C         141.2617  137.5884  163.1491 C.ar    1  UNL1        0.0033
     10 C         141.2196  137.8725  164.6213 C.ar    1  UNL1        0.0207
     11 C         141.1517  139.2890  165.1101 C.ar    1  UNL1        0.0994
     12 N         141.1096  139.5731  166.5824 N.ar    1  UNL1       -0.2839
     13 C         142.2852  139.5743  167.5141 C.ar    1  UNL1        0.1826
     14 N         141.7866  139.9079  168.8890 N.ar    1  UNL1       -0.2280
     15 C         140.3029  140.1128  168.8070 C.ar    1  UNL1        0.0786
     16 C         139.3968  140.4631  169.9498 C.3     1  UNL1        0.0538
     17 C         139.8844  139.9059  167.3814 C.ar    1  UNL1        0.0963
     18 C         139.7395  142.5514  164.6662 C.3     1  UNL1        0.2525
     19 O         141.0580  141.8378  164.6156 O.3     1  UNL1       -0.4700
     20 C         142.9038  137.2144  157.3877 C.3     1  UNL1        0.1571
     21 C         142.3864  136.1280  156.4920 C.ar    1  UNL1        0.0198
     22 C         141.3818  136.4501  155.4257 C.ar    1  UNL1       -0.0008
     23 C         140.8645  135.3638  154.5300 C.ar    1  UNL1       -0.0002
     24 C         141.3517  133.9554  154.7006 C.ar    1  UNL1        0.0015
     25 C         142.3564  133.6333  155.7669 C.ar    1  UNL1        0.0174
     26 C         142.8436  132.2250  155.9375 C.ar    1  UNL1        0.0031
     27 C         143.8482  131.9030  157.0038 C.ar    1  UNL1        0.0207
     28 C         144.3656  132.9893  157.8995 C.ar    1  UNL1        0.0988
     29 N         143.8783  134.3976  157.7289 N.ar    1  UNL1       -0.2441
     30 C         142.8737  134.7197  156.6626 C.ar    1  UNL1        0.0792
@<TRIPOS>BOND
     1    18    19    1
     2    19     6    1
     3     6     7   ar
     4     7     8   ar
     5     8     1    1
     6     1     2   ar
     7     2     3   ar
     8     3    20    1
     9    20    21    1
    10    21    22   ar
    11    22    23   ar
    12    23    24   ar
    13    24    25   ar
    14    25    26   ar
    15    26    27   ar
    16    27    28   ar
    17    28    29   ar
    18    29    30   ar
    19     3     4   ar
    20     4     5   ar
    21     8     9   ar
    22     9    10   ar
    23    10    11   ar
    24    11    12    1
    25    12    13   ar
    26    13    14   ar
    27    14    15   ar
    28    15    16    1
    29    15    17   ar
    30    11     6   ar
    31    17    12   ar
    32     5     1   ar
    33    30    21   ar
    34    30    25   ar
@<TRIPOS>MOLECULE
*****
 30 34 0 0 0
SMALL
GASTEIGER

@<TRIPOS>ATOM
      1 C         142.8129  137.2676  157.5570 C.ar    1  UNL1        0.1233
      2 C         142.2539  137.6268  158.9018 C.ar    1  UNL1        0.1179
      3 N         142.7513  138.9960  159.2598 N.ar    1  UNL1       -0.2257
      4 N         143.6176  139.4829  158.1363 N.ar    1  UNL1       -0.0635
      5 N         143.6557  138.4147  157.0839 N.ar    1  UNL1       -0.1287
      6 C         143.0027  133.4411  156.5216 C.ar    1  UNL1        0.1547
      7 C         143.2441  134.7225  157.2631 C.ar    1  UNL1        0.0400
      8 C         142.5715  135.9862  156.8155 C.ar    1  UNL1        0.0241
      9 C         141.6574  135.9686  155.6263 C.ar    1  UNL1        0.0033
     10 C         141.4160  134.6873  154.8848 C.ar    1  UNL1        0.0207
     11 C         142.0887  133.4235  155.3325 C.ar    1  UNL1        0.0994
     12 N         141.8473  132.1422  154.5910 N.ar    1  UNL1       -0.2839
     13 C         142.7134  131.5750  153.5054 C.ar    1  UNL1        0.1826
     14 N         142.0988  130.2853  153.0484 N.ar    1  UNL1       -0.2280
     15 C         140.8529  130.0553  153.8515 C.ar    1  UNL1        0.0786
     16 C         139.9254  128.8835  153.7236 C.3     1  UNL1        0.0538
     17 C         140.6975  131.2029  154.8049 C.ar    1  UNL1        0.0963
     18 C         145.0595  131.8540  156.4900 C.3     1  UNL1        0.2525
     19 O         143.6754  132.1774  156.9694 O.3     1  UNL1       -0.4700
     20 C         142.4373  139.7464  160.5201 C.3     1  UNL1        0.1571
     21 C         141.8433  139.0258  161.6938 C.ar    1  UNL1        0.0198
     22 C         140.4885  138.3924  161.5778 C.ar    1  UNL1       -0.0008
     23 C         139.8945  137.6718  162.7516 C.ar    1  UNL1       -0.0002
     24 C         140.6551  137.5846  164.0414 C.ar    1  UNL1        0.0015
     25 C         142.0099  138.2180  164.1576 C.ar    1  UNL1        0.0174
     26 C         142.7705  138.1308  165.4474 C.ar    1  UNL1        0.0031
     27 C         144.1252  138.7642  165.5635 C.ar    1  UNL1        0.0207
     28 C         144.7193  139.4848  164.3897 C.ar    1  UNL1        0.0988
     29 N         143.9587  139.5720  163.0998 N.ar    1  UNL1       -0.2441
     30 C         142.6040  138.9386  162.9838 C.ar    1  UNL1        0.0792
@<TRIPOS>BOND
     1    18    19    1
     2    19     6    1
     3     6     7   ar
     4     7     8   ar
     5     8     1    1
     6     1     2   ar
     7     2     3   ar
     8     3    20    1
     9    20    21    1
    10    21    22   ar
    11    22    23   ar
    12    23    24   ar
    13    24    25   ar
    14    25    26   ar
    15    26    27   ar
    16    27    28   ar
    17    28    29   ar
    18    29    30   ar
    19     3     4   ar
    20     4     5   ar
    21     8     9   ar
    22     9    10   ar
    23    10    11   ar
    24    11    12    1
    25    12    13   ar
    26    13    14   ar
    27    14    15   ar
    28    15    16    1
    29    15    17   ar
    30    11     6   ar
    31    17    12   ar
    32     5     1   ar
    33    30    21   ar
    34    30    25   ar
@<TRIPOS>MOLECULE
*****
 30 34 0 0 0
SMALL
GASTEIGER

@<TRIPOS>ATOM
      1 C         143.3575  141.8150  160.5015 C.ar    1  UNL1        0.1233
      2 C         142.3495  142.6643  161.2174 C.ar    1  UNL1        0.1179
      3 N         143.0899  143.7419  161.9527 N.ar    1  UNL1       -0.2257
      4 N         144.5555  143.5586  161.6913 N.ar    1  UNL1       -0.0635
      5 N         144.7209  142.3677  160.7944 N.ar    1  UNL1       -0.1287
      6 C         143.4748  139.2398  157.4842 C.ar    1  UNL1        0.1547
      7 C         143.7771  140.4323  158.3423 C.ar    1  UNL1        0.0400
      8 C         143.0553  140.6224  159.6434 C.ar    1  UNL1        0.0241
      9 C         142.0312  139.6199  160.0863 C.ar    1  UNL1        0.0033
     10 C         141.7290  138.4273  159.2282 C.ar    1  UNL1        0.0207
     11 C         142.4508  138.2373  157.9271 C.ar    1  UNL1        0.0994
     12 N         142.1486  137.0447  157.0690 N.ar    1  UNL1       -0.2839
     13 C         141.0086  136.9204  156.1020 C.ar    1  UNL1        0.1826
     14 N         141.0887  135.5659  155.4625 N.ar    1  UNL1       -0.2280
     15 C         142.2782  134.8530  156.0344 C.ar    1  UNL1        0.0786
     16 C         142.7328  133.4692  155.6762 C.3     1  UNL1        0.0538
     17 C         142.9332  135.7669  157.0272 C.ar    1  UNL1        0.0963
     18 C         145.2351  140.0416  155.7497 C.3     1  UNL1        0.2525
     19 O         144.1966  139.0498  156.1831 O.3     1  UNL1       -0.4700
     20 C         142.4729  144.8145  162.8006 C.3     1  UNL1        0.1571
     21 C         141.3104  144.4905  163.6914 C.ar    1  UNL1        0.0198
     22 C         139.9517  145.0463  163.3833 C.ar    1  UNL1       -0.0008
     23 C         138.7892  144.7223  164.2741 C.ar    1  UNL1       -0.0002
     24 C         138.9853  143.8425  165.4730 C.ar    1  UNL1        0.0015
     25 C         140.3441  143.2866  165.7812 C.ar    1  UNL1        0.0174
     26 C         140.5402  142.4068  166.9801 C.ar    1  UNL1        0.0031
     27 C         141.8989  141.8510  167.2882 C.ar    1  UNL1        0.0207
     28 C         143.0614  142.1750  166.3974 C.ar    1  UNL1        0.0988
     29 N         142.8653  143.0548  165.1985 N.ar    1  UNL1       -0.2441
     30 C         141.5066  143.6106  164.8904 C.ar    1  UNL1        0.0792
@<TRIPOS>BOND
     1    18    19    1
     2    19     6    1
     3     6     7   ar
     4     7     8   ar
     5     8     1    1
     6     1     2   ar
     7     2     3   ar
     8     3    20    1
     9    20    21    1
    10    21    22   ar
    11    22    23   ar
    12    23    24   ar
    13    24    25   ar
    14    25    26   ar
    15    26    27   ar
    16    27    28   ar
    17    28    29   ar
    18    29    30   ar
    19     3     4   ar
    20     4     5   ar
    21     8     9   ar
    22     9    10   ar
    23    10    11   ar
    24    11    12    1
    25    12    13   ar
    26    13    14   ar
    27    14    15   ar
    28    15    16    1
    29    15    17   ar
    30    11     6   ar
    31    17    12   ar
    32     5     1   ar
    33    30    21   ar
    34    30    25   ar
