@<TRIPOS>MOLECULE
*****
 26 28 0 0 0
SMALL
GASTEIGER

@<TRIPOS>ATOM
      1 P         142.4951  142.1598  166.1016 P.3     1  UNL1        0.2266
      2 O         143.6787  142.6569  166.8776 O.2     1  UNL1       -0.2903
      3 C         141.8813  141.6429  167.3690 C.ar    1  UNL1        0.0498
      4 C         140.8590  142.4647  168.0967 C.ar    1  UNL1        0.0046
      5 C         140.2453  141.9478  169.3640 C.ar    1  UNL1        0.0002
      6 C         140.6538  140.6092  169.9036 C.ar    1  UNL1        0.0000
      7 C         141.6761  139.7875  169.1759 C.ar    1  UNL1        0.0002
      8 C         142.2899  140.3043  167.9086 C.ar    1  UNL1        0.0046
      9 C         143.1089  142.6766  164.8343 C.ar    1  UNL1        0.0498
     10 C         143.1676  144.1533  164.5772 C.ar    1  UNL1        0.0046
     11 C         143.7814  144.6701  163.3099 C.ar    1  UNL1        0.0002
     12 C         144.3364  143.7104  162.2996 C.ar    1  UNL1        0.0000
     13 C         144.2777  142.2337  162.5566 C.ar    1  UNL1        0.0002
     14 C         143.6639  141.7169  163.8240 C.ar    1  UNL1        0.0046
     15 N         141.3116  141.6626  165.3257 N.pl3   1  UNL1       -0.2602
     16 C         140.3849  142.6390  164.6638 C.ar    1  UNL1        0.0724
     17 C         139.6831  143.6809  165.4834 C.ar    1  UNL1        0.0180
     18 C         138.7565  144.6572  164.8215 C.ar    1  UNL1        0.0220
     19 C         138.5316  144.5915  163.3399 C.ar    1  UNL1        0.0990
     20 N         139.2333  143.5496  162.5203 N.ar    1  UNL1       -0.2410
     21 C         140.1600  142.5733  163.1822 C.ar    1  UNL1        0.1136
     22 C         141.0547  140.1892  165.2116 C.3     1  UNL1        0.0986
     23 C         139.6500  139.6661  165.2686 C.3     1  UNL1        0.0380
     24 C         138.8404  139.8261  166.5212 C.3     1  UNL1        0.1072
     25 N         136.9788  137.6412  167.3933 N.1     1  UNL1       -0.1959
     26 C         137.9096  138.7337  166.9572 C.1     1  UNL1        0.0732
@<TRIPOS>BOND
     1    25    26    3
     2    26    24    1
     3    24    23    1
     4    23    22    1
     5    22    15    1
     6    15    16    1
     7    16    17   ar
     8    17    18   ar
     9    18    19   ar
    10    19    20   ar
    11    20    21   ar
    12    15     1    1
    13     1     2    2
    14     1     3    1
    15     3     4   ar
    16     4     5   ar
    17     5     6   ar
    18     6     7   ar
    19     7     8   ar
    20     1     9    1
    21     9    10   ar
    22    10    11   ar
    23    11    12   ar
    24    12    13   ar
    25    13    14   ar
    26    21    16   ar
    27     8     3   ar
    28    14     9   ar
@<TRIPOS>MOLECULE
*****
 26 28 0 0 0
SMALL
GASTEIGER

@<TRIPOS>ATOM
      1 P         142.5454  142.2434  166.2261 P.3     1  UNL1        0.2266
      2 O         143.7051  142.7804  167.0114 O.2     1  UNL1       -0.2903
      3 C         143.1731  142.7418  164.9583 C.ar    1  UNL1        0.0498
      4 C         143.1791  144.2100  164.6511 C.ar    1  UNL1        0.0046
      5 C         143.8068  144.7084  163.3832 C.ar    1  UNL1        0.0002
      6 C         144.4286  143.7387  162.4225 C.ar    1  UNL1        0.0000
      7 C         144.4227  142.2705  162.7297 C.ar    1  UNL1        0.0002
      8 C         143.7949  141.7721  163.9976 C.ar    1  UNL1        0.0046
      9 C         141.9177  141.7450  167.4940 C.ar    1  UNL1        0.0498
     10 C         140.8780  142.5712  168.1914 C.ar    1  UNL1        0.0046
     11 C         140.2503  142.0728  169.4593 C.ar    1  UNL1        0.0002
     12 C         140.6622  140.7481  170.0298 C.ar    1  UNL1        0.0000
     13 C         141.7019  139.9219  169.3324 C.ar    1  UNL1        0.0002
     14 C         142.3296  140.4203  168.0645 C.ar    1  UNL1        0.0046
     15 N         141.3857  141.7064  165.4409 N.pl3   1  UNL1       -0.2602
     16 C         140.4449  142.6502  164.7521 C.ar    1  UNL1        0.0724
     17 C         139.6963  143.6773  165.5487 C.ar    1  UNL1        0.0180
     18 C         138.7556  144.6211  164.8600 C.ar    1  UNL1        0.0220
     19 C         138.5636  144.5377  163.3747 C.ar    1  UNL1        0.0990
     20 N         139.3122  143.5107  162.5781 N.ar    1  UNL1       -0.2410
     21 C         140.2529  142.5669  163.2668 C.ar    1  UNL1        0.1136
     22 C         141.1667  140.2256  165.3443 C.3     1  UNL1        0.0986
     23 C         139.7734  139.6704  165.3686 C.3     1  UNL1        0.0380
     24 C         138.9255  139.8254  166.5962 C.3     1  UNL1        0.1072
     25 N         136.9864  137.6682  167.3620 N.1     1  UNL1       -0.1959
     26 C         137.9560  138.7468  166.9791 C.1     1  UNL1        0.0732
@<TRIPOS>BOND
     1    25    26    3
     2    26    24    1
     3    24    23    1
     4    23    22    1
     5    22    15    1
     6    15    16    1
     7    16    17   ar
     8    17    18   ar
     9    18    19   ar
    10    19    20   ar
    11    20    21   ar
    12    15     1    1
    13     1     2    2
    14     1     3    1
    15     3     4   ar
    16     4     5   ar
    17     5     6   ar
    18     6     7   ar
    19     7     8   ar
    20     1     9    1
    21     9    10   ar
    22    10    11   ar
    23    11    12   ar
    24    12    13   ar
    25    13    14   ar
    26    21    16   ar
    27     8     3   ar
    28    14     9   ar
@<TRIPOS>MOLECULE
*****
 26 28 0 0 0
SMALL
GASTEIGER

@<TRIPOS>ATOM
      1 P         141.7092  140.0969  165.3725 P.3     1  UNL1        0.2266
      2 O         142.3979  139.5341  166.5804 O.2     1  UNL1       -0.2903
      3 C         142.9966  140.7290  164.9331 C.ar    1  UNL1        0.0498
      4 C         143.9897  139.9338  164.1384 C.ar    1  UNL1        0.0046
      5 C         145.2770  140.5660  163.6989 C.ar    1  UNL1        0.0002
      6 C         145.5713  141.9933  164.0542 C.ar    1  UNL1        0.0000
      7 C         144.5783  142.7884  164.8488 C.ar    1  UNL1        0.0002
      8 C         143.2909  142.1563  165.2883 C.ar    1  UNL1        0.0046
      9 C         140.4219  139.4647  165.8120 C.ar    1  UNL1        0.0498
     10 C         139.8637  138.2959  165.0556 C.ar    1  UNL1        0.0046
     11 C         138.5764  137.6637  165.4950 C.ar    1  UNL1        0.0002
     12 C         137.8472  138.2005  166.6909 C.ar    1  UNL1        0.0000
     13 C         138.4053  139.3693  167.4473 C.ar    1  UNL1        0.0002
     14 C         139.6927  140.0014  167.0078 C.ar    1  UNL1        0.0046
     15 N         141.0206  140.6596  164.1646 N.pl3   1  UNL1       -0.2602
     16 C         139.9902  141.7382  164.3232 C.ar    1  UNL1        0.0724
     17 C         140.3521  143.0278  164.9982 C.ar    1  UNL1        0.0180
     18 C         139.3217  144.1063  165.1568 C.ar    1  UNL1        0.0220
     19 C         137.9294  143.8950  164.6404 C.ar    1  UNL1        0.0990
     20 N         137.5674  142.6054  163.9654 N.ar    1  UNL1       -0.2410
     21 C         138.5978  141.5269  163.8068 C.ar    1  UNL1        0.1136
     22 C         141.3623  140.1439  162.7982 C.3     1  UNL1        0.0986
     23 C         141.3786  141.0796  161.6258 C.3     1  UNL1        0.0380
     24 C         142.6580  141.7474  161.2171 C.3     1  UNL1        0.1072
     25 N         143.1986  144.5823  162.0366 N.1     1  UNL1       -0.1959
     26 C         142.9283  143.1648  161.6268 C.1     1  UNL1        0.0732
@<TRIPOS>BOND
     1    25    26    3
     2    26    24    1
     3    24    23    1
     4    23    22    1
     5    22    15    1
     6    15    16    1
     7    16    17   ar
     8    17    18   ar
     9    18    19   ar
    10    19    20   ar
    11    20    21   ar
    12    15     1    1
    13     1     2    2
    14     1     3    1
    15     3     4   ar
    16     4     5   ar
    17     5     6   ar
    18     6     7   ar
    19     7     8   ar
    20     1     9    1
    21     9    10   ar
    22    10    11   ar
    23    11    12   ar
    24    12    13   ar
    25    13    14   ar
    26    21    16   ar
    27     8     3   ar
    28    14     9   ar
@<TRIPOS>MOLECULE
*****
 26 28 0 0 0
SMALL
GASTEIGER

@<TRIPOS>ATOM
      1 P         141.7086  140.0958  165.4024 P.3     1  UNL1        0.2266
      2 O         142.3925  139.5415  166.6169 O.2     1  UNL1       -0.2903
      3 C         140.4202  139.4643  165.8397 C.ar    1  UNL1        0.0498
      4 C         139.6929  139.9968  167.0386 C.ar    1  UNL1        0.0046
      5 C         138.4045  139.3653  167.4759 C.ar    1  UNL1        0.0002
      6 C         137.8434  138.2012  166.7143 C.ar    1  UNL1        0.0000
      7 C         138.5707  137.6687  165.5154 C.ar    1  UNL1        0.0002
      8 C         139.8591  138.3002  165.0781 C.ar    1  UNL1        0.0046
      9 C         142.9970  140.7273  164.9651 C.ar    1  UNL1        0.0498
     10 C         143.2897  142.1556  165.3176 C.ar    1  UNL1        0.0046
     11 C         144.5781  142.7871  164.8803 C.ar    1  UNL1        0.0002
     12 C         145.5737  141.9904  164.0905 C.ar    1  UNL1        0.0000
     13 C         145.2810  140.5621  163.7380 C.ar    1  UNL1        0.0002
     14 C         143.9926  139.9306  164.1753 C.ar    1  UNL1        0.0046
     15 N         141.0247  140.6500  164.1879 N.pl3   1  UNL1       -0.2602
     16 C         139.9939  141.7299  164.3348 C.ar    1  UNL1        0.0724
     17 C         140.3531  143.0236  165.0036 C.ar    1  UNL1        0.0180
     18 C         139.3224  144.1034  165.1505 C.ar    1  UNL1        0.0220
     19 C         137.9325  143.8895  164.6286 C.ar    1  UNL1        0.0990
     20 N         137.5733  142.5958  163.9598 N.ar    1  UNL1       -0.2410
     21 C         138.6040  141.5160  163.8129 C.ar    1  UNL1        0.1136
     22 C         141.3715  140.1245  162.8265 C.3     1  UNL1        0.0986
     23 C         141.3843  141.0500  161.6461 C.3     1  UNL1        0.0380
     24 C         142.6522  141.7500  161.2556 C.3     1  UNL1        0.1072
     25 N         143.1216  144.5884  162.1060 N.1     1  UNL1       -0.1959
     26 C         142.8869  143.1692  161.6808 C.1     1  UNL1        0.0732
@<TRIPOS>BOND
     1    25    26    3
     2    26    24    1
     3    24    23    1
     4    23    22    1
     5    22    15    1
     6    15    16    1
     7    16    17   ar
     8    17    18   ar
     9    18    19   ar
    10    19    20   ar
    11    20    21   ar
    12    15     1    1
    13     1     2    2
    14     1     3    1
    15     3     4   ar
    16     4     5   ar
    17     5     6   ar
    18     6     7   ar
    19     7     8   ar
    20     1     9    1
    21     9    10   ar
    22    10    11   ar
    23    11    12   ar
    24    12    13   ar
    25    13    14   ar
    26    21    16   ar
    27     8     3   ar
    28    14     9   ar
@<TRIPOS>MOLECULE
*****
 26 28 0 0 0
SMALL
GASTEIGER

@<TRIPOS>ATOM
      1 P         140.8545  140.7135  167.1604 P.3     1  UNL1        0.2266
      2 O         140.1759  139.8416  168.1749 O.2     1  UNL1       -0.2903
      3 C         140.2190  139.9226  166.0555 C.ar    1  UNL1        0.0498
      4 C         141.0397  138.9497  165.2618 C.ar    1  UNL1        0.0046
      5 C         140.4042  138.1588  164.1570 C.ar    1  UNL1        0.0002
      6 C         138.9482  138.3407  163.8459 C.ar    1  UNL1        0.0000
      7 C         138.1276  139.3136  164.6396 C.ar    1  UNL1        0.0002
      8 C         138.7630  140.1045  165.7445 C.ar    1  UNL1        0.0046
      9 C         141.4899  141.5045  168.2652 C.ar    1  UNL1        0.0498
     10 C         140.7816  142.6964  168.8375 C.ar    1  UNL1        0.0046
     11 C         141.4170  143.4873  169.9424 C.ar    1  UNL1        0.0002
     12 C         142.7607  143.0864  170.4749 C.ar    1  UNL1        0.0000
     13 C         143.4690  141.8945  169.9025 C.ar    1  UNL1        0.0002
     14 C         142.8336  141.1035  168.7977 C.ar    1  UNL1        0.0046
     15 N         141.5331  141.5855  166.1459 N.pl3   1  UNL1       -0.2602
     16 C         140.7225  142.5219  165.2996 C.ar    1  UNL1        0.0724
     17 C         139.8437  143.5495  165.9489 C.ar    1  UNL1        0.0180
     18 C         139.0332  144.4858  165.1026 C.ar    1  UNL1        0.0220
     19 C         139.1014  144.3946  163.6070 C.ar    1  UNL1        0.0990
     20 N         139.9802  143.3670  162.9576 N.ar    1  UNL1       -0.2410
     21 C         140.7907  142.4306  163.8039 C.ar    1  UNL1        0.1136
     22 C         143.0222  141.5210  165.9776 C.3     1  UNL1        0.0986
     23 C         143.8110  142.7829  165.7888 C.3     1  UNL1        0.0380
     24 C         144.6751  142.9526  164.5745 C.3     1  UNL1        0.1072
     25 N         143.6697  144.5255  162.2261 N.1     1  UNL1       -0.1959
     26 C         144.1724  143.7391  163.4003 C.1     1  UNL1        0.0732
@<TRIPOS>BOND
     1    25    26    3
     2    26    24    1
     3    24    23    1
     4    23    22    1
     5    22    15    1
     6    15    16    1
     7    16    17   ar
     8    17    18   ar
     9    18    19   ar
    10    19    20   ar
    11    20    21   ar
    12    15     1    1
    13     1     2    2
    14     1     3    1
    15     3     4   ar
    16     4     5   ar
    17     5     6   ar
    18     6     7   ar
    19     7     8   ar
    20     1     9    1
    21     9    10   ar
    22    10    11   ar
    23    11    12   ar
    24    12    13   ar
    25    13    14   ar
    26    21    16   ar
    27     8     3   ar
    28    14     9   ar
@<TRIPOS>MOLECULE
*****
 26 28 0 0 0
SMALL
GASTEIGER

@<TRIPOS>ATOM
      1 P         140.8736  140.7506  167.1281 P.3     1  UNL1        0.2266
      2 O         140.2112  139.8443  168.1230 O.2     1  UNL1       -0.2903
      3 C         141.5056  141.5201  168.2499 C.ar    1  UNL1        0.0498
      4 C         140.8168  142.7280  168.8123 C.ar    1  UNL1        0.0046
      5 C         141.4488  143.4975  169.9341 C.ar    1  UNL1        0.0002
      6 C         142.7698  143.0590  170.4935 C.ar    1  UNL1        0.0000
      7 C         143.4586  141.8511  169.9310 C.ar    1  UNL1        0.0002
      8 C         142.8266  141.0816  168.8092 C.ar    1  UNL1        0.0046
      9 C         140.2415  139.9811  166.0063 C.ar    1  UNL1        0.0498
     10 C         141.0711  139.0455  165.1778 C.ar    1  UNL1        0.0046
     11 C         140.4390  138.2760  164.0560 C.ar    1  UNL1        0.0002
     12 C         138.9774  138.4422  163.7628 C.ar    1  UNL1        0.0000
     13 C         138.1479  139.3777  164.5913 C.ar    1  UNL1        0.0002
     14 C         138.7799  140.1472  165.7130 C.ar    1  UNL1        0.0046
     15 N         141.5360  141.6569  166.1332 N.pl3   1  UNL1       -0.2602
     16 C         140.7081  142.5957  165.3064 C.ar    1  UNL1        0.0724
     17 C         139.7918  143.5761  165.9765 C.ar    1  UNL1        0.0180
     18 C         138.9640  144.5148  165.1498 C.ar    1  UNL1        0.0220
     19 C         139.0525  144.4731  163.6530 C.ar    1  UNL1        0.0990
     20 N         139.9689  143.4927  162.9829 N.ar    1  UNL1       -0.2410
     21 C         140.7967  142.5540  163.8096 C.ar    1  UNL1        0.1136
     22 C         143.0261  141.6245  165.9650 C.3     1  UNL1        0.0986
     23 C         143.8062  142.9055  165.9406 C.3     1  UNL1        0.0380
     24 C         144.3345  143.4373  164.6413 C.3     1  UNL1        0.1072
     25 N         145.6696  141.5858  162.6947 N.1     1  UNL1       -0.1959
     26 C         145.0020  142.5116  163.6681 C.1     1  UNL1        0.0732
@<TRIPOS>BOND
     1    25    26    3
     2    26    24    1
     3    24    23    1
     4    23    22    1
     5    22    15    1
     6    15    16    1
     7    16    17   ar
     8    17    18   ar
     9    18    19   ar
    10    19    20   ar
    11    20    21   ar
    12    15     1    1
    13     1     2    2
    14     1     3    1
    15     3     4   ar
    16     4     5   ar
    17     5     6   ar
    18     6     7   ar
    19     7     8   ar
    20     1     9    1
    21     9    10   ar
    22    10    11   ar
    23    11    12   ar
    24    12    13   ar
    25    13    14   ar
    26    21    16   ar
    27     8     3   ar
    28    14     9   ar
@<TRIPOS>MOLECULE
*****
 26 28 0 0 0
SMALL
GASTEIGER

@<TRIPOS>ATOM
      1 P         142.3075  141.5816  166.9395 P.3     1  UNL1        0.2266
      2 O         143.3752  141.8321  167.9628 O.2     1  UNL1       -0.2903
      3 C         141.2711  141.5695  168.0237 C.ar    1  UNL1        0.0498
      4 C         141.0862  142.7743  168.8980 C.ar    1  UNL1        0.0046
      5 C         140.0497  142.7621  169.9823 C.ar    1  UNL1        0.0002
      6 C         139.1982  141.5453  170.1923 C.ar    1  UNL1        0.0000
      7 C         139.3832  140.3405  169.3181 C.ar    1  UNL1        0.0002
      8 C         140.4196  140.3527  168.2338 C.ar    1  UNL1        0.0046
      9 C         143.3439  141.5938  165.8552 C.ar    1  UNL1        0.0498
     10 C         143.6824  140.3268  165.1270 C.ar    1  UNL1        0.0046
     11 C         144.7189  140.3390  164.0427 C.ar    1  UNL1        0.0002
     12 C         145.4168  141.6180  163.6866 C.ar    1  UNL1        0.0000
     13 C         145.0783  142.8849  164.4148 C.ar    1  UNL1        0.0002
     14 C         144.0419  142.8728  165.4990 C.ar    1  UNL1        0.0046
     15 N         141.2398  141.3312  165.9161 N.pl3   1  UNL1       -0.2602
     16 C         140.6337  142.4813  165.1677 C.ar    1  UNL1        0.0724
     17 C         139.6243  143.3645  165.8393 C.ar    1  UNL1        0.0180
     18 C         139.0182  144.5146  165.0909 C.ar    1  UNL1        0.0220
     19 C         139.4216  144.7814  163.6710 C.ar    1  UNL1        0.0990
     20 N         140.4310  143.8982  162.9995 N.ar    1  UNL1       -0.2410
     21 C         141.0371  142.7482  163.7478 C.ar    1  UNL1        0.1136
     22 C         140.7782  139.9308  165.6411 C.3     1  UNL1        0.0986
     23 C         140.0451  139.6187  164.3701 C.3     1  UNL1        0.0380
     24 C         138.5456  139.6491  164.3424 C.3     1  UNL1        0.1072
     25 N         137.1163  141.8714  162.9217 N.1     1  UNL1       -0.1959
     26 C         137.8310  140.7602  163.6321 C.1     1  UNL1        0.0732
@<TRIPOS>BOND
     1    25    26    3
     2    26    24    1
     3    24    23    1
     4    23    22    1
     5    22    15    1
     6    15    16    1
     7    16    17   ar
     8    17    18   ar
     9    18    19   ar
    10    19    20   ar
    11    20    21   ar
    12    15     1    1
    13     1     2    2
    14     1     3    1
    15     3     4   ar
    16     4     5   ar
    17     5     6   ar
    18     6     7   ar
    19     7     8   ar
    20     1     9    1
    21     9    10   ar
    22    10    11   ar
    23    11    12   ar
    24    12    13   ar
    25    13    14   ar
    26    21    16   ar
    27     8     3   ar
    28    14     9   ar
@<TRIPOS>MOLECULE
*****
 26 28 0 0 0
SMALL
GASTEIGER

@<TRIPOS>ATOM
      1 P         140.7430  142.4504  166.5711 P.3     1  UNL1        0.2266
      2 O         140.1545  143.4572  167.5146 O.2     1  UNL1       -0.2903
      3 C         141.2446  141.6511  167.7371 C.ar    1  UNL1        0.0498
      4 C         140.4131  140.5335  168.2935 C.ar    1  UNL1        0.0046
      5 C         140.9147  139.7342  169.4594 C.ar    1  UNL1        0.0002
      6 C         142.2478  140.0524  170.0689 C.ar    1  UNL1        0.0000
      7 C         143.0793  141.1699  169.5125 C.ar    1  UNL1        0.0002
      8 C         142.5777  141.9693  168.3466 C.ar    1  UNL1        0.0046
      9 C         140.2414  143.2498  165.4052 C.ar    1  UNL1        0.0498
     10 C         141.2105  143.9839  164.5267 C.ar    1  UNL1        0.0046
     11 C         140.7089  144.7833  163.3607 C.ar    1  UNL1        0.0002
     12 C         139.2382  144.8485  163.0733 C.ar    1  UNL1        0.0000
     13 C         138.2691  144.1144  163.9518 C.ar    1  UNL1        0.0002
     14 C         138.7707  143.3151  165.1178 C.ar    1  UNL1        0.0046
     15 N         141.3315  141.4437  165.6277 N.pl3   1  UNL1       -0.2602
     16 C         140.4355  140.6487  164.7247 C.ar    1  UNL1        0.0724
     17 C         140.5860  140.7548  163.2361 C.ar    1  UNL1        0.0180
     18 C         139.6901  139.9598  162.3332 C.ar    1  UNL1        0.0220
     19 C         138.6436  139.0589  162.9189 C.ar    1  UNL1        0.0990
     20 N         138.4930  138.9528  164.4075 N.ar    1  UNL1       -0.2410
     21 C         139.3890  139.7477  165.3104 C.ar    1  UNL1        0.1136
     22 C         142.8159  141.2318  165.5872 C.3     1  UNL1        0.0986
     23 C         143.3714  139.8565  165.3633 C.3     1  UNL1        0.0380
     24 C         142.9681  138.7286  166.2662 C.3     1  UNL1        0.1072
     25 N         145.0395  136.8202  167.2993 N.1     1  UNL1       -0.1959
     26 C         144.0038  137.7744  166.7827 C.1     1  UNL1        0.0732
@<TRIPOS>BOND
     1    25    26    3
     2    26    24    1
     3    24    23    1
     4    23    22    1
     5    22    15    1
     6    15    16    1
     7    16    17   ar
     8    17    18   ar
     9    18    19   ar
    10    19    20   ar
    11    20    21   ar
    12    15     1    1
    13     1     2    2
    14     1     3    1
    15     3     4   ar
    16     4     5   ar
    17     5     6   ar
    18     6     7   ar
    19     7     8   ar
    20     1     9    1
    21     9    10   ar
    22    10    11   ar
    23    11    12   ar
    24    12    13   ar
    25    13    14   ar
    26    21    16   ar
    27     8     3   ar
    28    14     9   ar
@<TRIPOS>MOLECULE
*****
 26 28 0 0 0
SMALL
GASTEIGER

@<TRIPOS>ATOM
      1 P         140.8380  142.0614  166.5252 P.3     1  UNL1        0.2266
      2 O         140.2128  143.1298  167.3723 O.2     1  UNL1       -0.2903
      3 C         141.5009  141.4852  167.7412 C.ar    1  UNL1        0.0498
      4 C         142.6790  142.1822  168.3544 C.ar    1  UNL1        0.0046
      5 C         143.3419  141.6061  169.5704 C.ar    1  UNL1        0.0002
      6 C         142.8266  140.3329  170.1733 C.ar    1  UNL1        0.0000
      7 C         141.6484  139.6359  169.5601 C.ar    1  UNL1        0.0002
      8 C         140.9855  140.2120  168.3441 C.ar    1  UNL1        0.0046
      9 C         140.1752  142.6375  165.3092 C.ar    1  UNL1        0.0498
     10 C         138.7012  142.4540  165.1006 C.ar    1  UNL1        0.0046
     11 C         138.0383  143.0302  163.8846 C.ar    1  UNL1        0.0002
     12 C         138.8495  143.7898  162.8772 C.ar    1  UNL1        0.0000
     13 C         140.3235  143.9733  163.0858 C.ar    1  UNL1        0.0002
     14 C         140.9864  143.3972  164.3018 C.ar    1  UNL1        0.0046
     15 N         141.4633  140.9929  165.6782 N.pl3   1  UNL1       -0.2602
     16 C         140.5977  139.9820  164.9862 C.ar    1  UNL1        0.0724
     17 C         139.6832  139.1037  165.7876 C.ar    1  UNL1        0.0180
     18 C         138.8177  138.0928  165.0957 C.ar    1  UNL1        0.0220
     19 C         138.8666  137.9602  163.6023 C.ar    1  UNL1        0.0990
     20 N         139.7810  138.8385  162.8010 N.ar    1  UNL1       -0.2410
     21 C         140.6466  139.8494  163.4929 C.ar    1  UNL1        0.1136
     22 C         142.9541  140.9355  165.5230 C.3     1  UNL1        0.0986
     23 C         143.6468  139.6090  165.4188 C.3     1  UNL1        0.0380
     24 C         144.8412  139.4548  164.5246 C.3     1  UNL1        0.1072
     25 N         145.8175  141.7874  162.9104 N.1     1  UNL1       -0.1959
     26 C         145.3293  140.6211  163.7175 C.1     1  UNL1        0.0732
@<TRIPOS>BOND
     1    25    26    3
     2    26    24    1
     3    24    23    1
     4    23    22    1
     5    22    15    1
     6    15    16    1
     7    16    17   ar
     8    17    18   ar
     9    18    19   ar
    10    19    20   ar
    11    20    21   ar
    12    15     1    1
    13     1     2    2
    14     1     3    1
    15     3     4   ar
    16     4     5   ar
    17     5     6   ar
    18     6     7   ar
    19     7     8   ar
    20     1     9    1
    21     9    10   ar
    22    10    11   ar
    23    11    12   ar
    24    12    13   ar
    25    13    14   ar
    26    21    16   ar
    27     8     3   ar
    28    14     9   ar
