@<TRIPOS>MOLECULE
*****
 34 38 0 0 0
SMALL
GASTEIGER

@<TRIPOS>ATOM
      1 C         139.5011  142.5619  158.5004 C.3     1  UNL1        0.1531
      2 C         138.6373  142.4759  159.7237 C.3     1  UNL1        0.1067
      3 N         138.8617  141.3815  160.7247 N.3     1  UNL1       -0.2665
      4 C         137.9979  141.2954  161.9481 C.3     1  UNL1        0.0940
      5 C         138.2223  140.2011  162.9491 C.3     1  UNL1        0.1107
      6 N         139.3104  139.1928  162.7268 N.am    1  UNL1       -0.2764
      7 C         139.5347  138.0984  163.7278 C.2     1  UNL1        0.2302
      8 O         140.6228  137.0902  163.5055 O.2     1  UNL1       -0.2745
      9 C         140.1741  139.2789  161.5035 C.3     1  UNL1        0.1119
     10 C         139.9498  140.3733  160.5024 C.3     1  UNL1        0.1075
     11 C         140.8135  140.4593  159.2791 C.3     1  UNL1        0.1601
     12 O         140.5892  141.5536  158.2781 O.3     1  UNL1       -0.3489
     13 C         137.6151  142.1336  156.2070 C.3     1  UNL1        0.0316
     14 C         138.3338  143.4421  156.3526 C.ar    1  UNL1       -0.0117
     15 C         139.2767  143.6563  157.4993 C.ar    1  UNL1        0.0027
     16 C         139.9954  144.9649  157.6450 C.ar    1  UNL1        0.0001
     17 C         139.7711  146.0592  156.6440 C.ar    1  UNL1        0.0301
     18 C         138.8281  145.8450  155.4972 C.ar    1  UNL1        0.1493
     19 F         138.6038  146.9394  154.4962 F       1  UNL1       -0.2035
     20 C         138.1094  144.5365  155.3515 C.ar    1  UNL1        0.0916
     21 C         137.1665  144.3223  154.2049 C.1     1  UNL1        0.1024
     22 N         136.2235  144.1081  153.0582 N.1     1  UNL1       -0.1908
     23 C         138.6710  138.0124  164.9511 C.3     1  UNL1        0.1131
     24 C         139.0553  138.7581  166.1945 C.ar    1  UNL1        0.0062
     25 C         140.3670  139.4831  166.2591 C.ar    1  UNL1        0.0009
     26 C         140.7513  140.2288  167.5025 C.ar    1  UNL1        0.0386
     27 C         139.8241  140.2497  168.6814 C.ar    1  UNL1        0.1672
     28 N         138.5125  139.5248  168.6169 N.ar    1  UNL1       -0.2252
     29 C         138.1281  138.7790  167.3734 C.ar    1  UNL1        0.0968
     30 N         140.2084  140.9954  169.9248 N.ar    1  UNL1       -0.1708
     31 C         141.5121  140.8759  170.6571 C.ar    1  UNL1        0.2272
     32 N         141.4660  141.7983  171.8392 N.ar    1  UNL1       -0.1044
     33 N         140.1338  142.4878  171.8374 N.ar    1  UNL1       -0.0222
     34 N         139.3566  141.9916  170.6543 N.ar    1  UNL1       -0.0371
@<TRIPOS>BOND
     1    13    14    1
     2    14    15   ar
     3     1    15    1
     4     1     2    1
     5     2     3    1
     6     3     4    1
     7     4     5    1
     8     5     6    1
     9     6     7   am
    10     7     8    2
    11     7    23    1
    12    23    24    1
    13    24    25   ar
    14    25    26   ar
    15    26    27   ar
    16    27    30    1
    17    30    31   ar
    18    31    32   ar
    19    32    33   ar
    20    33    34   ar
    21    27    28   ar
    22    28    29   ar
    23     6     9    1
    24    10     9    1
    25    10    11    1
    26    11    12    1
    27    15    16   ar
    28    16    17   ar
    29    17    18   ar
    30    18    19    1
    31    18    20   ar
    32    20    21    1
    33    21    22    3
    34    20    14   ar
    35    12     1    1
    36    10     3    1
    37    29    24   ar
    38    34    30   ar
@<TRIPOS>MOLECULE
*****
 34 38 0 0 0
SMALL
GASTEIGER

@<TRIPOS>ATOM
      1 C         138.4966  141.0796  157.6316 C.3     1  UNL1        0.1531
      2 C         137.7032  140.9562  158.8986 C.3     1  UNL1        0.1067
      3 N         138.2214  140.1179  160.0294 N.3     1  UNL1       -0.2665
      4 C         137.4279  139.9944  161.2964 C.3     1  UNL1        0.0940
      5 C         137.9462  139.1562  162.4272 C.3     1  UNL1        0.1107
      6 N         139.2579  138.4414  162.2910 N.am    1  UNL1       -0.2764
      7 C         139.7761  137.6031  163.4219 C.2     1  UNL1        0.2302
      8 O         141.0878  136.8883  163.2857 O.2     1  UNL1       -0.2745
      9 C         140.0513  138.5649  161.0241 C.3     1  UNL1        0.1119
     10 C         139.5331  139.4031  159.8932 C.3     1  UNL1        0.1075
     11 C         140.3265  139.5266  158.6263 C.3     1  UNL1        0.1601
     12 O         139.8083  140.3649  157.4955 O.3     1  UNL1       -0.3489
     13 C         139.3138  143.9569  157.4002 C.3     1  UNL1        0.0316
     14 C         138.3870  143.3565  156.3851 C.ar    1  UNL1       -0.0117
     15 C         137.9784  141.9179  156.5008 C.ar    1  UNL1        0.0027
     16 C         137.0515  141.3175  155.4857 C.ar    1  UNL1        0.0001
     17 C         136.5333  142.1557  154.3548 C.ar    1  UNL1        0.0301
     18 C         136.9419  143.5944  154.2391 C.ar    1  UNL1        0.1493
     19 F         136.4237  144.4326  153.1082 F       1  UNL1       -0.2035
     20 C         137.8687  144.1948  155.2542 C.ar    1  UNL1        0.0916
     21 C         138.2774  145.6334  155.1385 C.1     1  UNL1        0.1024
     22 N         138.6860  147.0720  155.0228 N.1     1  UNL1       -0.1908
     23 C         138.9827  137.4797  164.6888 C.3     1  UNL1        0.1131
     24 C         139.2607  138.3996  165.8405 C.ar    1  UNL1        0.0062
     25 C         140.5656  139.1358  165.9143 C.ar    1  UNL1        0.0009
     26 C         140.8436  140.0558  167.0659 C.ar    1  UNL1        0.0386
     27 C         139.8168  140.2396  168.1438 C.ar    1  UNL1        0.1672
     28 N         138.5120  139.5034  168.0701 N.ar    1  UNL1       -0.2252
     29 C         138.2339  138.5834  166.9184 C.ar    1  UNL1        0.0968
     30 N         140.0948  141.1595  169.2955 N.ar    1  UNL1       -0.1708
     31 C         140.4332  142.6176  169.1975 C.ar    1  UNL1        0.2272
     32 N         140.6308  143.1422  170.5889 N.ar    1  UNL1       -0.1044
     33 N         140.4145  142.0082  171.5468 N.ar    1  UNL1       -0.0222
     34 N         140.0833  140.7829  170.7475 N.ar    1  UNL1       -0.0371
@<TRIPOS>BOND
     1    13    14    1
     2    14    15   ar
     3     1    15    1
     4     1     2    1
     5     2     3    1
     6     3     4    1
     7     4     5    1
     8     5     6    1
     9     6     7   am
    10     7     8    2
    11     7    23    1
    12    23    24    1
    13    24    25   ar
    14    25    26   ar
    15    26    27   ar
    16    27    30    1
    17    30    31   ar
    18    31    32   ar
    19    32    33   ar
    20    33    34   ar
    21    27    28   ar
    22    28    29   ar
    23     6     9    1
    24    10     9    1
    25    10    11    1
    26    11    12    1
    27    15    16   ar
    28    16    17   ar
    29    17    18   ar
    30    18    19    1
    31    18    20   ar
    32    20    21    1
    33    21    22    3
    34    20    14   ar
    35    12     1    1
    36    10     3    1
    37    29    24   ar
    38    34    30   ar
@<TRIPOS>MOLECULE
*****
 34 38 0 0 0
SMALL
GASTEIGER

@<TRIPOS>ATOM
      1 C         142.5130  140.6000  163.7811 C.3     1  UNL1        0.1531
      2 C         141.5515  139.8357  162.9201 C.3     1  UNL1        0.1067
      3 N         141.9111  139.5106  161.5007 N.3     1  UNL1       -0.2665
      4 C         140.9495  138.7463  160.6396 C.3     1  UNL1        0.0940
      5 C         141.3091  138.4212  159.2201 C.3     1  UNL1        0.1107
      6 N         142.6302  138.8604  158.6616 N.am    1  UNL1       -0.2764
      7 C         142.9897  138.5352  157.2420 C.2     1  UNL1        0.2302
      8 O         144.3108  138.9744  156.6835 O.2     1  UNL1       -0.2745
      9 C         143.5917  139.6246  159.5226 C.3     1  UNL1        0.1119
     10 C         143.2322  139.9498  160.9422 C.3     1  UNL1        0.1075
     11 C         144.1937  140.7140  161.8031 C.3     1  UNL1        0.1601
     12 O         143.8341  141.0391  163.2226 O.3     1  UNL1       -0.3489
     13 C         143.2910  138.7275  165.9921 C.3     1  UNL1        0.0316
     14 C         142.5425  139.9889  166.3062 C.ar    1  UNL1       -0.0117
     15 C         142.1535  140.9251  165.2007 C.ar    1  UNL1        0.0027
     16 C         141.4050  142.1865  165.5147 C.ar    1  UNL1        0.0001
     17 C         141.0455  142.5117  166.9342 C.ar    1  UNL1        0.0301
     18 C         141.4345  141.5754  168.0397 C.ar    1  UNL1        0.1493
     19 F         141.0749  141.9006  169.4592 F       1  UNL1       -0.2035
     20 C         142.1830  140.3140  167.7257 C.ar    1  UNL1        0.0916
     21 C         142.5719  139.3778  168.8312 C.1     1  UNL1        0.1024
     22 N         142.9609  138.4415  169.9367 N.1     1  UNL1       -0.1908
     23 C         142.0282  137.7710  156.3810 C.3     1  UNL1        0.1131
     24 C         142.1160  136.2756  156.3039 C.ar    1  UNL1        0.0062
     25 C         141.2788  135.5253  155.3106 C.ar    1  UNL1        0.0009
     26 C         141.3666  134.0299  155.2335 C.ar    1  UNL1        0.0386
     27 C         142.2915  133.2847  156.1495 C.ar    1  UNL1        0.1672
     28 N         143.1286  134.0348  157.1427 N.ar    1  UNL1       -0.2252
     29 C         143.0408  135.5303  157.2199 C.ar    1  UNL1        0.0968
     30 N         142.3793  131.7893  156.0724 N.ar    1  UNL1       -0.1708
     31 C         143.2100  130.9080  156.9574 C.ar    1  UNL1        0.2272
     32 N         142.9959  129.4865  156.5286 N.ar    1  UNL1       -0.1044
     33 N         142.0328  129.4893  155.3786 N.ar    1  UNL1       -0.0222
     34 N         141.6517  130.9125  155.0966 N.ar    1  UNL1       -0.0371
@<TRIPOS>BOND
     1    13    14    1
     2    14    15   ar
     3     1    15    1
     4     1     2    1
     5     2     3    1
     6     3     4    1
     7     4     5    1
     8     5     6    1
     9     6     7   am
    10     7     8    2
    11     7    23    1
    12    23    24    1
    13    24    25   ar
    14    25    26   ar
    15    26    27   ar
    16    27    30    1
    17    30    31   ar
    18    31    32   ar
    19    32    33   ar
    20    33    34   ar
    21    27    28   ar
    22    28    29   ar
    23     6     9    1
    24    10     9    1
    25    10    11    1
    26    11    12    1
    27    15    16   ar
    28    16    17   ar
    29    17    18   ar
    30    18    19    1
    31    18    20   ar
    32    20    21    1
    33    21    22    3
    34    20    14   ar
    35    12     1    1
    36    10     3    1
    37    29    24   ar
    38    34    30   ar
@<TRIPOS>MOLECULE
*****
 34 38 0 0 0
SMALL
GASTEIGER

@<TRIPOS>ATOM
      1 C         142.3454  142.4151  165.8278 C.3     1  UNL1        0.1531
      2 C         143.3616  141.6985  164.9890 C.3     1  UNL1        0.1067
      3 N         143.4945  142.0239  163.5308 N.3     1  UNL1       -0.2665
      4 C         144.5108  141.3073  162.6919 C.3     1  UNL1        0.0940
      5 C         144.6436  141.6327  161.2337 C.3     1  UNL1        0.1107
      6 N         143.7602  142.6748  160.6143 N.am    1  UNL1       -0.2764
      7 C         143.8930  143.0002  159.1560 C.2     1  UNL1        0.2302
      8 O         143.0096  144.0423  158.5366 O.2     1  UNL1       -0.2745
      9 C         142.7439  143.3914  161.4531 C.3     1  UNL1        0.1119
     10 C         142.6110  143.0660  162.9114 C.3     1  UNL1        0.1075
     11 C         141.5947  143.7826  163.7502 C.3     1  UNL1        0.1601
     12 O         141.4619  143.4571  165.2084 O.3     1  UNL1       -0.3489
     13 C         139.8185  141.1732  166.8635 C.3     1  UNL1        0.0316
     14 C         140.9491  141.4687  167.8039 C.ar    1  UNL1       -0.0117
     15 C         142.2125  142.0897  167.2861 C.ar    1  UNL1        0.0027
     16 C         143.3431  142.3852  168.2265 C.ar    1  UNL1        0.0001
     17 C         143.2103  142.0598  169.6847 C.ar    1  UNL1        0.0301
     18 C         141.9468  141.4389  170.2026 C.ar    1  UNL1        0.1493
     19 F         141.8140  141.1135  171.6608 F       1  UNL1       -0.2035
     20 C         140.8162  141.1433  169.2622 C.ar    1  UNL1        0.0916
     21 C         139.5528  140.5224  169.7800 C.1     1  UNL1        0.1024
     22 N         138.2894  139.9014  170.2978 N.1     1  UNL1       -0.1908
     23 C         144.9093  142.2836  158.3173 C.3     1  UNL1        0.1131
     24 C         144.5244  141.0398  157.5725 C.ar    1  UNL1        0.0062
     25 C         145.0496  140.8020  156.1876 C.ar    1  UNL1        0.0009
     26 C         144.6647  139.5581  155.4429 C.ar    1  UNL1        0.0386
     27 C         143.7547  138.5520  156.0829 C.ar    1  UNL1        0.1672
     28 N         143.2296  138.7898  157.4677 N.ar    1  UNL1       -0.2252
     29 C         143.6144  140.0337  158.2125 C.ar    1  UNL1        0.0968
     30 N         143.3698  137.3082  155.3382 N.ar    1  UNL1       -0.1708
     31 C         143.8536  135.9191  155.6323 C.ar    1  UNL1        0.2272
     32 N         143.2163  134.9874  154.6444 N.ar    1  UNL1       -0.1044
     33 N         142.3387  135.8007  153.7397 N.ar    1  UNL1       -0.0222
     34 N         142.4336  137.2350  154.1685 N.ar    1  UNL1       -0.0371
@<TRIPOS>BOND
     1    13    14    1
     2    14    15   ar
     3     1    15    1
     4     1     2    1
     5     2     3    1
     6     3     4    1
     7     4     5    1
     8     5     6    1
     9     6     7   am
    10     7     8    2
    11     7    23    1
    12    23    24    1
    13    24    25   ar
    14    25    26   ar
    15    26    27   ar
    16    27    30    1
    17    30    31   ar
    18    31    32   ar
    19    32    33   ar
    20    33    34   ar
    21    27    28   ar
    22    28    29   ar
    23     6     9    1
    24    10     9    1
    25    10    11    1
    26    11    12    1
    27    15    16   ar
    28    16    17   ar
    29    17    18   ar
    30    18    19    1
    31    18    20   ar
    32    20    21    1
    33    21    22    3
    34    20    14   ar
    35    12     1    1
    36    10     3    1
    37    29    24   ar
    38    34    30   ar
@<TRIPOS>MOLECULE
*****
 34 38 0 0 0
SMALL
GASTEIGER

@<TRIPOS>ATOM
      1 C         142.2728  140.6208  165.7358 C.3     1  UNL1        0.1531
      2 C         142.3800  141.6995  164.6990 C.3     1  UNL1        0.1067
      3 N         142.6669  141.3412  163.2710 N.3     1  UNL1       -0.2665
      4 C         142.7742  142.4199  162.2341 C.3     1  UNL1        0.0940
      5 C         143.0611  142.0617  160.8061 C.3     1  UNL1        0.1107
      6 N         143.2408  140.6248  160.4149 N.am    1  UNL1       -0.2764
      7 C         143.5277  140.2666  158.9868 C.2     1  UNL1        0.2302
      8 O         143.7074  138.8297  158.5955 O.2     1  UNL1       -0.2745
      9 C         143.1335  139.5461  161.4516 C.3     1  UNL1        0.1119
     10 C         142.8466  139.9043  162.8798 C.3     1  UNL1        0.1075
     11 C         142.7394  138.8257  163.9165 C.3     1  UNL1        0.1601
     12 O         142.4524  139.1839  165.3446 O.3     1  UNL1       -0.3489
     13 C         139.7386  139.6814  167.0379 C.3     1  UNL1        0.0316
     14 C         140.7188  140.5093  167.8149 C.ar    1  UNL1       -0.0117
     15 C         141.9858  140.9790  167.1639 C.ar    1  UNL1        0.0027
     16 C         142.9660  141.8070  167.9409 C.ar    1  UNL1        0.0001
     17 C         142.6792  142.1652  169.3690 C.ar    1  UNL1        0.0301
     18 C         141.4120  141.6955  170.0201 C.ar    1  UNL1        0.1493
     19 F         141.1252  142.0537  171.4481 F       1  UNL1       -0.2035
     20 C         140.4318  140.8675  169.2430 C.ar    1  UNL1        0.0916
     21 C         139.1648  140.3978  169.8941 C.1     1  UNL1        0.1024
     22 N         137.8977  139.9281  170.5451 N.1     1  UNL1       -0.1908
     23 C         143.6350  141.3452  157.9500 C.3     1  UNL1        0.1131
     24 C         144.9206  141.5420  157.2027 C.ar    1  UNL1        0.0062
     25 C         145.1908  140.7549  155.9547 C.ar    1  UNL1        0.0009
     26 C         146.4764  140.9517  155.2075 C.ar    1  UNL1        0.0386
     27 C         147.4919  141.9356  155.7081 C.ar    1  UNL1        0.1672
     28 N         147.2217  142.7228  156.9561 N.ar    1  UNL1       -0.2252
     29 C         145.9360  142.5260  157.7034 C.ar    1  UNL1        0.0968
     30 N         148.7775  142.1324  154.9609 N.ar    1  UNL1       -0.1708
     31 C         148.9474  142.9062  153.6871 C.ar    1  UNL1        0.2272
     32 N         150.3939  142.8420  153.2952 N.ar    1  UNL1       -0.1044
     33 N         151.1180  142.0286  154.3268 N.ar    1  UNL1       -0.0222
     34 N         150.1190  141.5900  155.3562 N.ar    1  UNL1       -0.0371
@<TRIPOS>BOND
     1    13    14    1
     2    14    15   ar
     3     1    15    1
     4     1     2    1
     5     2     3    1
     6     3     4    1
     7     4     5    1
     8     5     6    1
     9     6     7   am
    10     7     8    2
    11     7    23    1
    12    23    24    1
    13    24    25   ar
    14    25    26   ar
    15    26    27   ar
    16    27    30    1
    17    30    31   ar
    18    31    32   ar
    19    32    33   ar
    20    33    34   ar
    21    27    28   ar
    22    28    29   ar
    23     6     9    1
    24    10     9    1
    25    10    11    1
    26    11    12    1
    27    15    16   ar
    28    16    17   ar
    29    17    18   ar
    30    18    19    1
    31    18    20   ar
    32    20    21    1
    33    21    22    3
    34    20    14   ar
    35    12     1    1
    36    10     3    1
    37    29    24   ar
    38    34    30   ar
@<TRIPOS>MOLECULE
*****
 34 38 0 0 0
SMALL
GASTEIGER

@<TRIPOS>ATOM
      1 C         142.2949  138.1341  156.7660 C.3     1  UNL1        0.1531
      2 C         142.6076  137.4768  158.0775 C.3     1  UNL1        0.1067
      3 N         143.1537  138.2908  159.2129 N.3     1  UNL1       -0.2665
      4 C         143.4664  137.6335  160.5246 C.3     1  UNL1        0.0940
      5 C         144.0125  138.4475  161.6600 C.3     1  UNL1        0.1107
      6 N         144.2458  139.9187  161.4839 N.am    1  UNL1       -0.2764
      7 C         144.7919  140.7327  162.6194 C.2     1  UNL1        0.2302
      8 O         145.0252  142.2039  162.4433 O.2     1  UNL1       -0.2745
      9 C         143.9331  140.5760  160.1723 C.3     1  UNL1        0.1119
     10 C         143.3870  139.7620  159.0368 C.3     1  UNL1        0.1075
     11 C         143.0743  140.4193  157.7253 C.3     1  UNL1        0.1601
     12 O         142.5283  139.6053  156.5899 O.3     1  UNL1       -0.3489
     13 C         139.5056  138.6226  155.7756 C.3     1  UNL1        0.0316
     14 C         140.3542  137.5644  155.1353 C.ar    1  UNL1       -0.0117
     15 C         141.7488  137.3201  155.6305 C.ar    1  UNL1        0.0027
     16 C         142.5975  136.2619  154.9902 C.ar    1  UNL1        0.0001
     17 C         142.0515  135.4479  153.8547 C.ar    1  UNL1        0.0301
     18 C         140.6567  135.6922  153.3595 C.ar    1  UNL1        0.1493
     19 F         140.1107  134.8782  152.2240 F       1  UNL1       -0.2035
     20 C         139.8081  136.7504  153.9998 C.ar    1  UNL1        0.0916
     21 C         138.4135  136.9947  153.5046 C.1     1  UNL1        0.1024
     22 N         137.0188  137.2390  153.0094 N.1     1  UNL1       -0.1908
     23 C         145.1046  140.0754  163.9309 C.3     1  UNL1        0.1131
     24 C         144.0670  140.0297  165.0131 C.ar    1  UNL1        0.0062
     25 C         143.9061  138.7927  165.8462 C.ar    1  UNL1        0.0009
     26 C         142.8684  138.7470  166.9284 C.ar    1  UNL1        0.0386
     27 C         141.9918  139.9383  167.1776 C.ar    1  UNL1        0.1672
     28 N         142.1527  141.1753  166.3447 N.ar    1  UNL1       -0.2252
     29 C         143.1903  141.2211  165.2624 C.ar    1  UNL1        0.0968
     30 N         140.9541  139.8927  168.2598 N.ar    1  UNL1       -0.1708
     31 C         141.2183  139.7428  169.7288 C.ar    1  UNL1        0.2272
     32 N         139.8975  139.7463  170.4400 N.ar    1  UNL1       -0.1044
     33 N         138.8171  139.8984  169.4105 N.ar    1  UNL1       -0.0222
     34 N         139.4701  139.9889  168.0632 N.ar    1  UNL1       -0.0371
@<TRIPOS>BOND
     1    13    14    1
     2    14    15   ar
     3     1    15    1
     4     1     2    1
     5     2     3    1
     6     3     4    1
     7     4     5    1
     8     5     6    1
     9     6     7   am
    10     7     8    2
    11     7    23    1
    12    23    24    1
    13    24    25   ar
    14    25    26   ar
    15    26    27   ar
    16    27    30    1
    17    30    31   ar
    18    31    32   ar
    19    32    33   ar
    20    33    34   ar
    21    27    28   ar
    22    28    29   ar
    23     6     9    1
    24    10     9    1
    25    10    11    1
    26    11    12    1
    27    15    16   ar
    28    16    17   ar
    29    17    18   ar
    30    18    19    1
    31    18    20   ar
    32    20    21    1
    33    21    22    3
    34    20    14   ar
    35    12     1    1
    36    10     3    1
    37    29    24   ar
    38    34    30   ar
@<TRIPOS>MOLECULE
*****
 34 38 0 0 0
SMALL
GASTEIGER

@<TRIPOS>ATOM
      1 C         142.5927  140.3871  165.4776 C.3     1  UNL1        0.1531
      2 C         141.5627  139.8549  164.5259 C.3     1  UNL1        0.1067
      3 N         141.8822  139.7349  163.0653 N.3     1  UNL1       -0.2665
      4 C         140.8521  139.2027  162.1135 C.3     1  UNL1        0.0940
      5 C         141.1716  139.0827  160.6529 C.3     1  UNL1        0.1107
      6 N         142.5211  139.4949  160.1439 N.am    1  UNL1       -0.2764
      7 C         142.8405  139.3749  158.6832 C.2     1  UNL1        0.2302
      8 O         144.1900  139.7870  158.1743 O.2     1  UNL1       -0.2745
      9 C         143.5511  140.0271  161.0956 C.3     1  UNL1        0.1119
     10 C         143.2316  140.1471  162.5564 C.3     1  UNL1        0.1075
     11 C         144.2617  140.6792  163.5081 C.3     1  UNL1        0.1601
     12 O         143.9422  140.7992  164.9687 O.3     1  UNL1       -0.3489
     13 C         141.2999  142.8811  166.5304 C.3     1  UNL1        0.0316
     14 C         141.6269  141.7541  167.4647 C.ar    1  UNL1       -0.0117
     15 C         142.2733  140.5071  166.9384 C.ar    1  UNL1        0.0027
     16 C         142.6003  139.3801  167.8726 C.ar    1  UNL1        0.0001
     17 C         142.2809  139.5000  169.3333 C.ar    1  UNL1        0.0301
     18 C         141.6344  140.7471  169.8597 C.ar    1  UNL1        0.1493
     19 F         141.3150  140.8670  171.3204 F       1  UNL1       -0.2035
     20 C         141.3074  141.8741  168.9254 C.ar    1  UNL1        0.0916
     21 C         140.6610  143.1211  169.4518 C.1     1  UNL1        0.1024
     22 N         140.0146  144.3681  169.9782 N.1     1  UNL1       -0.1908
     23 C         141.8105  138.8427  157.7315 C.3     1  UNL1        0.1131
     24 C         141.9418  137.4520  157.1850 C.ar    1  UNL1        0.0062
     25 C         141.0402  136.9931  156.0775 C.ar    1  UNL1        0.0009
     26 C         141.1715  135.6024  155.5310 C.ar    1  UNL1        0.0386
     27 C         142.2045  134.6706  156.0920 C.ar    1  UNL1        0.1672
     28 N         143.1061  135.1294  157.1994 N.ar    1  UNL1       -0.2252
     29 C         142.9748  136.5202  157.7460 C.ar    1  UNL1        0.0968
     30 N         142.3358  133.2799  155.5455 N.ar    1  UNL1       -0.1708
     31 C         142.6002  132.9162  154.1145 C.ar    1  UNL1        0.2272
     32 N         142.6536  131.4201  154.0186 N.ar    1  UNL1       -0.1044
     33 N         142.4222  130.8592  155.3905 N.ar    1  UNL1       -0.0222
     34 N         142.2258  132.0086  156.3341 N.ar    1  UNL1       -0.0371
@<TRIPOS>BOND
     1    13    14    1
     2    14    15   ar
     3     1    15    1
     4     1     2    1
     5     2     3    1
     6     3     4    1
     7     4     5    1
     8     5     6    1
     9     6     7   am
    10     7     8    2
    11     7    23    1
    12    23    24    1
    13    24    25   ar
    14    25    26   ar
    15    26    27   ar
    16    27    30    1
    17    30    31   ar
    18    31    32   ar
    19    32    33   ar
    20    33    34   ar
    21    27    28   ar
    22    28    29   ar
    23     6     9    1
    24    10     9    1
    25    10    11    1
    26    11    12    1
    27    15    16   ar
    28    16    17   ar
    29    17    18   ar
    30    18    19    1
    31    18    20   ar
    32    20    21    1
    33    21    22    3
    34    20    14   ar
    35    12     1    1
    36    10     3    1
    37    29    24   ar
    38    34    30   ar
@<TRIPOS>MOLECULE
*****
 34 38 0 0 0
SMALL
GASTEIGER

@<TRIPOS>ATOM
      1 C         141.3707  140.3776  164.4136 C.3     1  UNL1        0.1531
      2 C         142.4486  139.5663  163.7580 C.3     1  UNL1        0.1067
      3 N         142.3078  139.1521  162.3232 N.3     1  UNL1       -0.2665
      4 C         143.3856  138.3407  161.6675 C.3     1  UNL1        0.0940
      5 C         143.2448  137.9265  160.2328 C.3     1  UNL1        0.1107
      6 N         142.0262  138.3238  159.4536 N.am    1  UNL1       -0.2764
      7 C         141.8854  137.9096  158.0187 C.2     1  UNL1        0.2302
      8 O         140.6668  138.3069  157.2396 O.2     1  UNL1       -0.2745
      9 C         140.9484  139.1352  160.1092 C.3     1  UNL1        0.1119
     10 C         141.0891  139.5494  161.5441 C.3     1  UNL1        0.1075
     11 C         140.0113  140.3608  162.1997 C.3     1  UNL1        0.1601
     12 O         140.1521  140.7749  163.6344 O.3     1  UNL1       -0.3489
     13 C         139.2982  139.5579  166.4218 C.3     1  UNL1        0.0316
     14 C         140.4753  140.3820  166.8525 C.ar    1  UNL1       -0.0117
     15 C         141.5115  140.7918  165.8484 C.ar    1  UNL1        0.0027
     16 C         142.6886  141.6159  166.2791 C.ar    1  UNL1        0.0001
     17 C         142.8294  142.0301  167.7139 C.ar    1  UNL1        0.0301
     18 C         141.7931  141.6202  168.7181 C.ar    1  UNL1        0.1493
     19 F         141.9339  142.0344  170.1528 F       1  UNL1       -0.2035
     20 C         140.6161  140.7961  168.2873 C.ar    1  UNL1        0.0916
     21 C         139.5798  140.3863  169.2914 C.1     1  UNL1        0.1024
     22 N         138.5436  139.9764  170.2955 N.1     1  UNL1       -0.1908
     23 C         142.9632  137.0982  157.3631 C.3     1  UNL1        0.1131
     24 C         142.6692  135.7070  156.8856 C.ar    1  UNL1        0.0062
     25 C         141.8217  135.4961  155.6660 C.ar    1  UNL1        0.0009
     26 C         141.5277  134.1049  155.1885 C.ar    1  UNL1        0.0386
     27 C         142.0810  132.9246  155.9305 C.ar    1  UNL1        0.1672
     28 N         142.9284  133.1355  157.1501 N.ar    1  UNL1       -0.2252
     29 C         143.2225  134.5267  157.6277 C.ar    1  UNL1        0.0968
     30 N         141.7869  131.5334  155.4530 N.ar    1  UNL1       -0.1708
     31 C         140.5472  131.0919  154.7332 C.ar    1  UNL1        0.2272
     32 N         140.6750  129.6250  154.4467 N.ar    1  UNL1       -0.1044
     33 N         141.9938  129.1599  154.9896 N.ar    1  UNL1       -0.0222
     34 N         142.6810  130.3393  155.6115 N.ar    1  UNL1       -0.0371
@<TRIPOS>BOND
     1    13    14    1
     2    14    15   ar
     3     1    15    1
     4     1     2    1
     5     2     3    1
     6     3     4    1
     7     4     5    1
     8     5     6    1
     9     6     7   am
    10     7     8    2
    11     7    23    1
    12    23    24    1
    13    24    25   ar
    14    25    26   ar
    15    26    27   ar
    16    27    30    1
    17    30    31   ar
    18    31    32   ar
    19    32    33   ar
    20    33    34   ar
    21    27    28   ar
    22    28    29   ar
    23     6     9    1
    24    10     9    1
    25    10    11    1
    26    11    12    1
    27    15    16   ar
    28    16    17   ar
    29    17    18   ar
    30    18    19    1
    31    18    20   ar
    32    20    21    1
    33    21    22    3
    34    20    14   ar
    35    12     1    1
    36    10     3    1
    37    29    24   ar
    38    34    30   ar
@<TRIPOS>MOLECULE
*****
 34 38 0 0 0
SMALL
GASTEIGER

@<TRIPOS>ATOM
      1 C         141.5319  140.2453  162.8895 C.3     1  UNL1        0.1531
      2 C         142.5254  139.7711  161.8707 C.3     1  UNL1        0.1067
      3 N         142.0489  139.1751  160.5793 N.3     1  UNL1       -0.2665
      4 C         143.0424  138.7009  159.5604 C.3     1  UNL1        0.0940
      5 C         142.5659  138.1049  158.2690 C.3     1  UNL1        0.1107
      6 N         141.0959  137.9832  157.9965 N.am    1  UNL1       -0.2764
      7 C         140.6194  137.3872  156.7050 C.2     1  UNL1        0.2302
      8 O         139.1494  137.2655  156.4324 O.2     1  UNL1       -0.2745
      9 C         140.1024  138.4574  159.0153 C.3     1  UNL1        0.1119
     10 C         140.5789  139.0534  160.3068 C.3     1  UNL1        0.1075
     11 C         139.5854  139.5276  161.3256 C.3     1  UNL1        0.1601
     12 O         140.0619  140.1236  162.6170 O.3     1  UNL1       -0.3489
     13 C         141.7650  138.5281  165.3384 C.3     1  UNL1        0.0316
     14 C         142.1249  139.9827  165.4054 C.ar    1  UNL1       -0.0117
     15 C         142.0084  140.8413  164.1810 C.ar    1  UNL1        0.0027
     16 C         142.3684  142.2959  164.2480 C.ar    1  UNL1        0.0001
     17 C         142.8449  142.8920  165.5394 C.ar    1  UNL1        0.0301
     18 C         142.9614  142.0333  166.7639 C.ar    1  UNL1        0.1493
     19 F         143.4378  142.6293  168.0552 F       1  UNL1       -0.2035
     20 C         142.6014  140.5787  166.6969 C.ar    1  UNL1        0.0916
     21 C         142.7179  139.7201  167.9212 C.1     1  UNL1        0.1024
     22 N         142.8344  138.8615  169.1456 N.1     1  UNL1       -0.1908
     23 C         141.6129  136.9130  155.6862 C.3     1  UNL1        0.1131
     24 C         142.0850  135.4894  155.7050 C.ar    1  UNL1        0.0062
     25 C         141.2037  134.3998  155.1698 C.ar    1  UNL1        0.0009
     26 C         141.6758  132.9762  155.1886 C.ar    1  UNL1        0.0386
     27 C         143.0291  132.6420  155.7427 C.ar    1  UNL1        0.1672
     28 N         143.9103  133.7315  156.2779 N.ar    1  UNL1       -0.2252
     29 C         143.4382  135.1552  156.2591 C.ar    1  UNL1        0.0968
     30 N         143.5011  131.2184  155.7615 N.ar    1  UNL1       -0.1708
     31 C         142.6317  130.0028  155.8896 C.ar    1  UNL1        0.2272
     32 N         143.5188  128.7934  155.8628 N.ar    1  UNL1       -0.1044
     33 N         144.9365  129.2617  155.7182 N.ar    1  UNL1       -0.0222
     34 N         144.9256  130.7603  155.6556 N.ar    1  UNL1       -0.0371
@<TRIPOS>BOND
     1    13    14    1
     2    14    15   ar
     3     1    15    1
     4     1     2    1
     5     2     3    1
     6     3     4    1
     7     4     5    1
     8     5     6    1
     9     6     7   am
    10     7     8    2
    11     7    23    1
    12    23    24    1
    13    24    25   ar
    14    25    26   ar
    15    26    27   ar
    16    27    30    1
    17    30    31   ar
    18    31    32   ar
    19    32    33   ar
    20    33    34   ar
    21    27    28   ar
    22    28    29   ar
    23     6     9    1
    24    10     9    1
    25    10    11    1
    26    11    12    1
    27    15    16   ar
    28    16    17   ar
    29    17    18   ar
    30    18    19    1
    31    18    20   ar
    32    20    21    1
    33    21    22    3
    34    20    14   ar
    35    12     1    1
    36    10     3    1
    37    29    24   ar
    38    34    30   ar
