@<TRIPOS>MOLECULE
*****
 31 34 0 0 0
SMALL
GASTEIGER

@<TRIPOS>ATOM
      1 C         141.4606  139.9714  161.3641 C.3     1  UNL1        0.0840
      2 C         142.6861  140.1174  160.5116 C.3     1  UNL1        0.0095
      3 C         143.7040  139.0166  160.4667 C.3     1  UNL1        0.0005
      4 C         143.4964  137.7698  161.2743 C.3     1  UNL1        0.0005
      5 C         142.2710  137.6238  162.1269 C.3     1  UNL1        0.0082
      6 C         141.2531  138.7246  162.1718 C.3     1  UNL1        0.0705
      7 N         140.6468  142.2458  162.3208 N.am    1  UNL1       -0.2807
      8 C         140.4427  141.0723  161.4091 C.2     1  UNL1        0.2261
      9 O         139.2206  140.9995  160.5424 O.2     1  UNL1       -0.2748
     10 H         141.4489  142.2935  162.8896 H       1  UNL1        0.1550
     11 C         137.7999  142.1619  163.9137 C.3     1  UNL1        0.0570
     12 C         138.3204  143.3080  163.0979 C.ar    1  UNL1        0.1140
     13 N         137.6236  144.6168  162.8711 N.ar    1  UNL1       -0.0804
     14 O         138.5015  145.4644  161.9987 O.2     1  UNL1       -0.3568
     15 C         139.7409  144.6793  161.6864 C.ar    1  UNL1        0.1678
     16 C         140.8904  145.1451  160.8428 C.3     1  UNL1        0.0767
     17 C         139.6290  143.3466  162.3657 C.ar    1  UNL1        0.1005
     18 C         140.0275  138.5786  163.0244 C.2     1  UNL1        0.1731
     19 O         138.7961  137.9316  162.4631 O.2     1  UNL1       -0.2913
     20 C         140.0335  139.0796  164.4382 C.ar    1  UNL1        0.0347
     21 C         141.2367  139.7971  164.9746 C.ar    1  UNL1        0.0029
     22 C         141.2426  140.2981  166.3885 C.ar    1  UNL1        0.0016
     23 C         140.0454  140.0815  167.2660 C.ar    1  UNL1        0.0171
     24 C         138.8423  139.3640  166.7296 C.ar    1  UNL1        0.0016
     25 C         138.8364  138.8631  165.3157 C.ar    1  UNL1        0.0029
     26 C         140.0514  140.5825  168.6798 C.ar    1  UNL1        0.0754
     27 C         140.2845  141.9998  169.1120 C.ar    1  UNL1        0.0409
     28 C         140.2025  142.0474  170.6090 C.ar    1  UNL1        0.1214
     29 N         139.9186  140.6595  171.1020 N.ar    1  UNL1       -0.1711
     30 N         139.8252  139.7541  169.9097 N.ar    1  UNL1       -0.2757
     31 H         139.6468  138.7862  169.9307 H       1  UNL1        0.1889
@<TRIPOS>BOND
     1    11    12    1
     2    12    13   ar
     3    13    14   ar
     4    14    15   ar
     5    15    16    1
     6    15    17   ar
     7    17     7    1
     8     7     8   am
     9     8     9    2
    10     1     8    1
    11     1     2    1
    12     2     3    1
    13     3     4    1
    14     4     5    1
    15     5     6    1
    16     6    18    1
    17    18    19    2
    18    18    20    1
    19    20    21   ar
    20    21    22   ar
    21    22    23   ar
    22    23    26    1
    23    26    27   ar
    24    27    28   ar
    25    28    29   ar
    26    29    30   ar
    27    23    24   ar
    28    24    25   ar
    29    17    12   ar
    30     6     1    1
    31    25    20   ar
    32    30    26   ar
    33     7    10    1
    34    30    31    1
@<TRIPOS>MOLECULE
*****
 31 34 0 0 0
SMALL
GASTEIGER

@<TRIPOS>ATOM
      1 C         141.5336  140.0186  161.3724 C.3     1  UNL1        0.0840
      2 C         142.7684  140.1435  160.5301 C.3     1  UNL1        0.0095
      3 C         143.7789  139.0351  160.5116 C.3     1  UNL1        0.0005
      4 C         143.5545  137.8018  161.3354 C.3     1  UNL1        0.0005
      5 C         142.3197  137.6770  162.1777 C.3     1  UNL1        0.0082
      6 C         141.3092  138.7854  162.1962 C.3     1  UNL1        0.0705
      7 N         140.6425  142.2341  162.3960 N.am    1  UNL1       -0.2807
      8 C         140.5230  141.1271  161.3909 C.2     1  UNL1        0.2261
      9 O         139.3931  141.1284  160.4044 O.2     1  UNL1       -0.2748
     10 H         141.3841  142.2332  163.0435 H       1  UNL1        0.1550
     11 C         141.0363  145.2103  161.1168 C.3     1  UNL1        0.0570
     12 C         139.8131  144.7105  161.8266 C.ar    1  UNL1        0.1140
     13 N         138.5561  145.4910  162.0730 N.ar    1  UNL1       -0.0804
     14 O         137.5981  144.6053  162.8133 O.2     1  UNL1       -0.3568
     15 C         138.2631  143.2775  163.0244 C.ar    1  UNL1        0.1678
     16 C         137.6643  142.0927  163.7226 C.3     1  UNL1        0.0767
     17 C         139.6320  143.3425  162.4146 C.ar    1  UNL1        0.1005
     18 C         140.0743  138.6605  163.0386 C.2     1  UNL1        0.1731
     19 O         138.8317  138.0497  162.4619 O.2     1  UNL1       -0.2913
     20 C         140.0822  139.1465  164.4577 C.ar    1  UNL1        0.0347
     21 C         141.2890  139.8515  165.0023 C.ar    1  UNL1        0.0029
     22 C         141.2969  140.3375  166.4214 C.ar    1  UNL1        0.0016
     23 C         140.0979  140.1186  167.2958 C.ar    1  UNL1        0.0171
     24 C         138.8911  139.4136  166.7511 C.ar    1  UNL1        0.0016
     25 C         138.8833  138.9276  165.3321 C.ar    1  UNL1        0.0029
     26 C         140.1058  140.6046  168.7149 C.ar    1  UNL1        0.0754
     27 C         140.3233  142.0201  169.1608 C.ar    1  UNL1        0.0409
     28 C         140.2494  142.0508  170.6587 C.ar    1  UNL1        0.1214
     29 N         139.9863  140.6541  171.1385 N.ar    1  UNL1       -0.1711
     30 N         139.8975  139.7604  169.9371 N.ar    1  UNL1       -0.2757
     31 H         139.7317  138.7900  169.9488 H       1  UNL1        0.1889
@<TRIPOS>BOND
     1    11    12    1
     2    12    13   ar
     3    13    14   ar
     4    14    15   ar
     5    15    16    1
     6    15    17   ar
     7    17     7    1
     8     7     8   am
     9     8     9    2
    10     1     8    1
    11     1     2    1
    12     2     3    1
    13     3     4    1
    14     4     5    1
    15     5     6    1
    16     6    18    1
    17    18    19    2
    18    18    20    1
    19    20    21   ar
    20    21    22   ar
    21    22    23   ar
    22    23    26    1
    23    26    27   ar
    24    27    28   ar
    25    28    29   ar
    26    29    30   ar
    27    23    24   ar
    28    24    25   ar
    29    17    12   ar
    30     6     1    1
    31    25    20   ar
    32    30    26   ar
    33     7    10    1
    34    30    31    1
@<TRIPOS>MOLECULE
*****
 31 34 0 0 0
SMALL
GASTEIGER

@<TRIPOS>ATOM
      1 C         140.0101  140.0905  162.0891 C.3     1  UNL1        0.0840
      2 C         138.8605  140.4061  161.1787 C.3     1  UNL1        0.0095
      3 C         137.7265  139.4343  161.0382 C.3     1  UNL1        0.0005
      4 C         137.7421  138.1471  161.8081 C.3     1  UNL1        0.0005
      5 C         138.8917  137.8315  162.7185 C.3     1  UNL1        0.0082
      6 C         140.0257  138.8033  162.8590 C.3     1  UNL1        0.0705
      7 N         140.9837  142.2834  163.0859 N.am    1  UNL1       -0.2807
      8 C         141.1442  141.0623  162.2296 C.2     1  UNL1        0.2261
      9 O         142.4386  140.8129  161.5140 O.2     1  UNL1       -0.2748
     10 H         140.1341  142.4470  163.5556 H       1  UNL1        0.1550
     11 C         141.9250  144.4688  160.8527 C.3     1  UNL1        0.0570
     12 C         142.5504  144.2596  162.1999 C.ar    1  UNL1        0.1140
     13 N         143.7182  145.0183  162.7573 N.ar    1  UNL1       -0.0804
     14 O         144.0073  144.4826  164.1283 O.2     1  UNL1       -0.3568
     15 C         143.0181  143.3929  164.4182 C.ar    1  UNL1        0.1678
     16 C         142.9427  142.5832  165.6786 C.3     1  UNL1        0.0767
     17 C         142.1177  143.2551  163.2264 C.ar    1  UNL1        0.1005
     18 C         141.1753  138.4878  163.7694 C.2     1  UNL1        0.1731
     19 O         142.3364  137.6856  163.2610 O.2     1  UNL1       -0.2913
     20 C         141.1639  138.9744  165.1882 C.ar    1  UNL1        0.0347
     21 C         142.4089  138.8891  166.0205 C.ar    1  UNL1        0.0029
     22 C         142.3975  139.3757  167.4393 C.ar    1  UNL1        0.0016
     23 C         141.1409  139.9477  168.0258 C.ar    1  UNL1        0.0171
     24 C         139.8959  140.0331  167.1936 C.ar    1  UNL1        0.0016
     25 C         139.9074  139.5464  165.7748 C.ar    1  UNL1        0.0029
     26 C         141.1295  140.4344  169.4446 C.ar    1  UNL1        0.0754
     27 C         141.8371  141.6501  169.9655 C.ar    1  UNL1        0.0409
     28 C         141.5533  141.7579  171.4345 C.ar    1  UNL1        0.1214
     29 N         140.6703  140.6088  171.8215 N.ar    1  UNL1       -0.1711
     30 N         140.4083  139.7908  170.5917 N.ar    1  UNL1       -0.2757
     31 H         139.8595  138.9748  170.5455 H       1  UNL1        0.1889
@<TRIPOS>BOND
     1    11    12    1
     2    12    13   ar
     3    13    14   ar
     4    14    15   ar
     5    15    16    1
     6    15    17   ar
     7    17     7    1
     8     7     8   am
     9     8     9    2
    10     1     8    1
    11     1     2    1
    12     2     3    1
    13     3     4    1
    14     4     5    1
    15     5     6    1
    16     6    18    1
    17    18    19    2
    18    18    20    1
    19    20    21   ar
    20    21    22   ar
    21    22    23   ar
    22    23    26    1
    23    26    27   ar
    24    27    28   ar
    25    28    29   ar
    26    29    30   ar
    27    23    24   ar
    28    24    25   ar
    29    17    12   ar
    30     6     1    1
    31    25    20   ar
    32    30    26   ar
    33     7    10    1
    34    30    31    1
@<TRIPOS>MOLECULE
*****
 31 34 0 0 0
SMALL
GASTEIGER

@<TRIPOS>ATOM
      1 C         140.8931  142.8803  162.1527 C.3     1  UNL1        0.0840
      2 C         139.8368  143.3474  161.1957 C.3     1  UNL1        0.0095
      3 C         139.5653  144.8139  161.0357 C.3     1  UNL1        0.0005
      4 C         140.3502  145.8133  161.8328 C.3     1  UNL1        0.0005
      5 C         141.4065  145.3461  162.7898 C.3     1  UNL1        0.0082
      6 C         141.6779  143.8796  162.9498 C.3     1  UNL1        0.0705
      7 N         140.3299  140.5945  163.2519 N.am    1  UNL1       -0.2807
      8 C         141.1646  141.4137  162.3127 C.2     1  UNL1        0.2261
      9 O         142.2708  140.7664  161.5335 O.2     1  UNL1       -0.2748
     10 H         139.6038  141.0194  163.7634 H       1  UNL1        0.1550
     11 C         141.6505  139.1628  165.8702 C.3     1  UNL1        0.0570
     12 C         141.2083  138.4700  164.6155 C.ar    1  UNL1        0.1140
     13 N         141.2956  136.9973  164.3439 N.ar    1  UNL1       -0.0804
     14 O         140.7425  136.7453  162.9725 O.2     1  UNL1       -0.3568
     15 C         140.3134  138.0621  162.3966 C.ar    1  UNL1        0.1678
     16 C         139.7036  138.2756  161.0429 C.3     1  UNL1        0.0767
     17 C         140.6013  139.1281  163.4120 C.ar    1  UNL1        0.1005
     18 C         142.7343  143.4124  163.9069 C.2     1  UNL1        0.1731
     19 O         144.1648  143.3299  163.4632 O.2     1  UNL1       -0.2913
     20 C         142.3600  143.0277  165.3076 C.ar    1  UNL1        0.0347
     21 C         143.4228  142.6077  166.2793 C.ar    1  UNL1        0.0029
     22 C         143.0486  142.2229  167.6800 C.ar    1  UNL1        0.0016
     23 C         141.6116  142.2582  168.1089 C.ar    1  UNL1        0.0171
     24 C         140.5489  142.6782  167.1372 C.ar    1  UNL1        0.0016
     25 C         140.9232  143.0629  165.7365 C.ar    1  UNL1        0.0029
     26 C         141.2374  141.8734  169.5096 C.ar    1  UNL1        0.0754
     27 C         141.0885  140.4744  170.0298 C.ar    1  UNL1        0.0409
     28 C         140.7054  140.5565  171.4777 C.ar    1  UNL1        0.1214
     29 N         140.6175  142.0062  171.8524 N.ar    1  UNL1       -0.1711
     30 N         140.9462  142.8201  170.6361 N.ar    1  UNL1       -0.2757
     31 H         140.9673  143.8031  170.5859 H       1  UNL1        0.1889
@<TRIPOS>BOND
     1    11    12    1
     2    12    13   ar
     3    13    14   ar
     4    14    15   ar
     5    15    16    1
     6    15    17   ar
     7    17     7    1
     8     7     8   am
     9     8     9    2
    10     1     8    1
    11     1     2    1
    12     2     3    1
    13     3     4    1
    14     4     5    1
    15     5     6    1
    16     6    18    1
    17    18    19    2
    18    18    20    1
    19    20    21   ar
    20    21    22   ar
    21    22    23   ar
    22    23    26    1
    23    26    27   ar
    24    27    28   ar
    25    28    29   ar
    26    29    30   ar
    27    23    24   ar
    28    24    25   ar
    29    17    12   ar
    30     6     1    1
    31    25    20   ar
    32    30    26   ar
    33     7    10    1
    34    30    31    1
@<TRIPOS>MOLECULE
*****
 31 34 0 0 0
SMALL
GASTEIGER

@<TRIPOS>ATOM
      1 C         140.1111  139.6111  165.2798 C.3     1  UNL1        0.0840
      2 C         139.6503  140.0170  166.6484 C.3     1  UNL1        0.0095
      3 C         138.5733  139.2346  167.3398 C.3     1  UNL1        0.0005
      4 C         137.9572  138.0464  166.6626 C.3     1  UNL1        0.0005
      5 C         138.4179  137.6406  165.2941 C.3     1  UNL1        0.0082
      6 C         139.4949  138.4229  164.6027 C.3     1  UNL1        0.0705
      7 N         142.6240  139.9857  164.7365 N.am    1  UNL1       -0.2807
      8 C         141.1881  140.3935  164.5884 C.2     1  UNL1        0.2261
      9 O         140.8292  141.5836  163.7489 O.2     1  UNL1       -0.2748
     10 H         142.8595  139.2046  165.2875 H       1  UNL1        0.1550
     11 C         144.0897  139.1712  161.9369 C.3     1  UNL1        0.0570
     12 C         144.3747  140.3936  162.7583 C.ar    1  UNL1        0.1140
     13 N         145.3834  141.4562  162.4370 N.ar    1  UNL1       -0.0804
     14 O         145.3331  142.4874  163.5253 O.2     1  UNL1       -0.3568
     15 C         144.2933  142.0620  164.5191 C.ar    1  UNL1        0.1678
     16 C         143.9127  142.8009  165.7677 C.3     1  UNL1        0.0767
     17 C         143.7009  140.7680  164.0451 C.ar    1  UNL1        0.1005
     18 C         139.9557  138.0171  163.2341 C.2     1  UNL1        0.1731
     19 O         140.9305  136.8883  163.0750 O.2     1  UNL1       -0.2913
     20 C         139.4417  138.7402  162.0246 C.ar    1  UNL1        0.0347
     21 C         137.9751  139.0241  161.8875 C.ar    1  UNL1        0.0029
     22 C         137.4611  139.7472  160.6780 C.ar    1  UNL1        0.0016
     23 C         138.4136  140.1864  159.6056 C.ar    1  UNL1        0.0171
     24 C         139.8800  139.9024  159.7427 C.ar    1  UNL1        0.0016
     25 C         140.3941  139.1793  160.9522 C.ar    1  UNL1        0.0029
     26 C         137.8995  140.9095  158.3961 C.ar    1  UNL1        0.0754
     27 C         138.1665  142.3435  158.0465 C.ar    1  UNL1        0.0409
     28 C         137.4602  142.6458  156.7581 C.ar    1  UNL1        0.1214
     29 N         136.7568  141.3986  156.3115 N.ar    1  UNL1       -0.1711
     30 N         137.0283  140.3255  157.3237 N.ar    1  UNL1       -0.2757
     31 H         136.6935  139.4003  157.2902 H       1  UNL1        0.1889
@<TRIPOS>BOND
     1    11    12    1
     2    12    13   ar
     3    13    14   ar
     4    14    15   ar
     5    15    16    1
     6    15    17   ar
     7    17     7    1
     8     7     8   am
     9     8     9    2
    10     1     8    1
    11     1     2    1
    12     2     3    1
    13     3     4    1
    14     4     5    1
    15     5     6    1
    16     6    18    1
    17    18    19    2
    18    18    20    1
    19    20    21   ar
    20    21    22   ar
    21    22    23   ar
    22    23    26    1
    23    26    27   ar
    24    27    28   ar
    25    28    29   ar
    26    29    30   ar
    27    23    24   ar
    28    24    25   ar
    29    17    12   ar
    30     6     1    1
    31    25    20   ar
    32    30    26   ar
    33     7    10    1
    34    30    31    1
@<TRIPOS>MOLECULE
*****
 31 34 0 0 0
SMALL
GASTEIGER

@<TRIPOS>ATOM
      1 C         140.2112  140.1437  162.1608 C.3     1  UNL1        0.0840
      2 C         140.4614  139.0096  161.2116 C.3     1  UNL1        0.0095
      3 C         139.3578  138.0477  160.8849 C.3     1  UNL1        0.0005
      4 C         138.0041  138.2199  161.5075 C.3     1  UNL1        0.0005
      5 C         137.7539  139.3540  162.4568 C.3     1  UNL1        0.0082
      6 C         138.8575  140.3159  162.7835 C.3     1  UNL1        0.0705
      7 N         141.3958  142.4239  161.7763 N.am    1  UNL1       -0.2807
      8 C         141.3149  141.1057  162.4875 C.2     1  UNL1        0.2261
      9 O         142.3375  140.7495  163.5254 O.2     1  UNL1       -0.2748
     10 H         140.7246  142.6577  161.0950 H       1  UNL1        0.1550
     11 C         144.5296  142.1099  160.9218 C.3     1  UNL1        0.0570
     12 C         143.9398  143.2415  161.7101 C.ar    1  UNL1        0.1140
     13 N         144.6869  144.4275  162.2441 N.ar    1  UNL1       -0.0804
     14 O         143.7082  145.3049  162.9670 O.2     1  UNL1       -0.3568
     15 C         142.3562  144.6611  162.8797 C.ar    1  UNL1        0.1678
     16 C         141.0844  145.1982  163.4661 C.3     1  UNL1        0.0767
     17 C         142.4993  143.3859  162.1029 C.ar    1  UNL1        0.1005
     18 C         138.6074  141.4501  163.7328 C.2     1  UNL1        0.1731
     19 O         137.8474  142.6590  163.2734 O.2     1  UNL1       -0.2913
     20 C         139.1172  141.3754  165.1415 C.ar    1  UNL1        0.0347
     21 C         139.8466  142.5426  165.7380 C.ar    1  UNL1        0.0029
     22 C         140.3565  142.4678  167.1467 C.ar    1  UNL1        0.0016
     23 C         140.1370  141.2259  167.9589 C.ar    1  UNL1        0.0171
     24 C         139.4077  140.0588  167.3623 C.ar    1  UNL1        0.0016
     25 C         138.8978  140.1335  165.9536 C.ar    1  UNL1        0.0029
     26 C         140.6469  141.1511  169.3676 C.ar    1  UNL1        0.0754
     27 C         142.0828  141.0149  169.7795 C.ar    1  UNL1        0.0409
     28 C         142.1338  140.9790  171.2782 C.ar    1  UNL1        0.1214
     29 N         140.7294  141.0932  171.7926 N.ar    1  UNL1       -0.1711
     30 N         139.8105  141.1995  170.6118 N.ar    1  UNL1       -0.2757
     31 H         138.8304  141.2859  170.6471 H       1  UNL1        0.1889
@<TRIPOS>BOND
     1    11    12    1
     2    12    13   ar
     3    13    14   ar
     4    14    15   ar
     5    15    16    1
     6    15    17   ar
     7    17     7    1
     8     7     8   am
     9     8     9    2
    10     1     8    1
    11     1     2    1
    12     2     3    1
    13     3     4    1
    14     4     5    1
    15     5     6    1
    16     6    18    1
    17    18    19    2
    18    18    20    1
    19    20    21   ar
    20    21    22   ar
    21    22    23   ar
    22    23    26    1
    23    26    27   ar
    24    27    28   ar
    25    28    29   ar
    26    29    30   ar
    27    23    24   ar
    28    24    25   ar
    29    17    12   ar
    30     6     1    1
    31    25    20   ar
    32    30    26   ar
    33     7    10    1
    34    30    31    1
@<TRIPOS>MOLECULE
*****
 31 34 0 0 0
SMALL
GASTEIGER

@<TRIPOS>ATOM
      1 C         140.2899  143.1928  161.5708 C.3     1  UNL1        0.0840
      2 C         140.9860  144.3589  160.9341 C.3     1  UNL1        0.0095
      3 C         140.4534  145.7476  161.1284 C.3     1  UNL1        0.0005
      4 C         139.2247  145.9702  161.9595 C.3     1  UNL1        0.0005
      5 C         138.5286  144.8041  162.5963 C.3     1  UNL1        0.0082
      6 C         139.0612  143.4154  162.4020 C.3     1  UNL1        0.0705
      7 N         142.0882  141.3833  162.0628 N.am    1  UNL1       -0.2807
      8 C         140.8225  141.8040  161.3765 C.2     1  UNL1        0.2261
      9 O         140.0894  140.8360  160.4959 O.2     1  UNL1       -0.2748
     10 H         142.5693  142.0186  162.6408 H       1  UNL1        0.1550
     11 C         143.7636  140.3163  159.4737 C.3     1  UNL1        0.0570
     12 C         143.3909  139.5041  160.6785 C.ar    1  UNL1        0.1140
     13 N         143.7228  138.0589  160.9046 N.ar    1  UNL1       -0.0804
     14 O         143.1578  137.6561  162.2345 O.2     1  UNL1       -0.3568
     15 C         142.4767  138.8524  162.8302 C.ar    1  UNL1        0.1678
     16 C         141.7748  138.8985  164.1551 C.3     1  UNL1        0.0767
     17 C         142.6207  139.9946  161.8686 C.ar    1  UNL1        0.1005
     18 C         138.3651  142.2491  163.0388 C.2     1  UNL1        0.1731
     19 O         137.2166  141.5868  162.3372 O.2     1  UNL1       -0.2913
     20 C         138.8175  141.7453  164.3773 C.ar    1  UNL1        0.0347
     21 C         138.3380  140.4156  164.8793 C.ar    1  UNL1        0.0029
     22 C         138.7904  139.9118  166.2178 C.ar    1  UNL1        0.0016
     23 C         139.7223  140.7376  167.0542 C.ar    1  UNL1        0.0171
     24 C         140.2018  142.0673  166.5521 C.ar    1  UNL1        0.0016
     25 C         139.7494  142.5711  165.2137 C.ar    1  UNL1        0.0029
     26 C         140.1747  140.2338  168.3926 C.ar    1  UNL1        0.0754
     27 C         141.5818  139.8775  168.7710 C.ar    1  UNL1        0.0409
     28 C         141.5762  139.4213  170.2000 C.ar    1  UNL1        0.1214
     29 N         140.1656  139.4957  170.7047 N.ar    1  UNL1       -0.1711
     30 N         139.2995  139.9978  169.5878 N.ar    1  UNL1       -0.2757
     31 H         138.3273  140.1465  169.6314 H       1  UNL1        0.1889
@<TRIPOS>BOND
     1    11    12    1
     2    12    13   ar
     3    13    14   ar
     4    14    15   ar
     5    15    16    1
     6    15    17   ar
     7    17     7    1
     8     7     8   am
     9     8     9    2
    10     1     8    1
    11     1     2    1
    12     2     3    1
    13     3     4    1
    14     4     5    1
    15     5     6    1
    16     6    18    1
    17    18    19    2
    18    18    20    1
    19    20    21   ar
    20    21    22   ar
    21    22    23   ar
    22    23    26    1
    23    26    27   ar
    24    27    28   ar
    25    28    29   ar
    26    29    30   ar
    27    23    24   ar
    28    24    25   ar
    29    17    12   ar
    30     6     1    1
    31    25    20   ar
    32    30    26   ar
    33     7    10    1
    34    30    31    1
@<TRIPOS>MOLECULE
*****
 31 34 0 0 0
SMALL
GASTEIGER

@<TRIPOS>ATOM
      1 C         140.7689  140.5599  167.9423 C.3     1  UNL1        0.0840
      2 C         139.6564  140.0137  168.7871 C.3     1  UNL1        0.0095
      3 C         139.0896  140.8377  169.9050 C.3     1  UNL1        0.0005
      4 C         139.6354  142.2079  170.1781 C.3     1  UNL1        0.0005
      5 C         140.7480  142.7541  169.3333 C.3     1  UNL1        0.0082
      6 C         141.3147  141.9301  168.2154 C.3     1  UNL1        0.0705
      7 N         140.7054  139.7827  165.4640 N.am    1  UNL1       -0.2807
      8 C         141.3357  139.7359  166.8243 C.2     1  UNL1        0.2261
      9 O         142.5328  138.8652  167.0667 O.2     1  UNL1       -0.2748
     10 H         139.9197  140.3541  165.3049 H       1  UNL1        0.1550
     11 C         139.1168  137.4822  163.7806 C.3     1  UNL1        0.0570
     12 C         140.5419  137.9013  163.5723 C.ar    1  UNL1        0.1140
     13 N         141.4870  137.3366  162.5536 N.ar    1  UNL1       -0.0804
     14 O         142.8014  138.0449  162.6977 O.2     1  UNL1       -0.3568
     15 C         142.6685  139.0475  163.8055 C.ar    1  UNL1        0.1678
     16 C         143.7434  139.9758  164.2881 C.3     1  UNL1        0.0767
     17 C         141.2721  138.9587  164.3460 C.ar    1  UNL1        0.1005
     18 C         142.4274  142.4763  167.3705 C.2     1  UNL1        0.1731
     19 O         143.8253  142.5261  167.9120 O.2     1  UNL1       -0.2913
     20 C         142.1420  142.9727  165.9841 C.ar    1  UNL1        0.0347
     21 C         143.2706  143.2064  165.0239 C.ar    1  UNL1        0.0029
     22 C         142.9852  143.7028  163.6375 C.ar    1  UNL1        0.0016
     23 C         141.5712  143.9656  163.2112 C.ar    1  UNL1        0.0171
     24 C         140.4427  143.7319  164.1713 C.ar    1  UNL1        0.0016
     25 C         140.7281  143.2355  165.5577 C.ar    1  UNL1        0.0029
     26 C         141.2858  144.4620  161.8248 C.ar    1  UNL1        0.0754
     27 C         139.9280  144.6236  161.2083 C.ar    1  UNL1        0.0409
     28 C         140.1111  145.1454  159.8139 C.ar    1  UNL1        0.1214
     29 N         141.5821  145.3064  159.5687 N.ar    1  UNL1       -0.1711
     30 N         142.3081  144.8840  160.8115 N.ar    1  UNL1       -0.2757
     31 H         143.2842  144.8837  160.9397 H       1  UNL1        0.1889
@<TRIPOS>BOND
     1    11    12    1
     2    12    13   ar
     3    13    14   ar
     4    14    15   ar
     5    15    16    1
     6    15    17   ar
     7    17     7    1
     8     7     8   am
     9     8     9    2
    10     1     8    1
    11     1     2    1
    12     2     3    1
    13     3     4    1
    14     4     5    1
    15     5     6    1
    16     6    18    1
    17    18    19    2
    18    18    20    1
    19    20    21   ar
    20    21    22   ar
    21    22    23   ar
    22    23    26    1
    23    26    27   ar
    24    27    28   ar
    25    28    29   ar
    26    29    30   ar
    27    23    24   ar
    28    24    25   ar
    29    17    12   ar
    30     6     1    1
    31    25    20   ar
    32    30    26   ar
    33     7    10    1
    34    30    31    1
@<TRIPOS>MOLECULE
*****
 31 34 0 0 0
SMALL
GASTEIGER

@<TRIPOS>ATOM
      1 C         140.7284  140.4755  167.8473 C.3     1  UNL1        0.0840
      2 C         139.7028  139.8919  168.7732 C.3     1  UNL1        0.0095
      3 C         139.1802  140.7038  169.9210 C.3     1  UNL1        0.0005
      4 C         139.6832  142.0994  170.1429 C.3     1  UNL1        0.0005
      5 C         140.7088  142.6831  169.2170 C.3     1  UNL1        0.0082
      6 C         141.2314  141.8711  168.0692 C.3     1  UNL1        0.0705
      7 N         140.5863  139.7473  165.3574 N.am    1  UNL1       -0.2807
      8 C         141.2511  139.6635  166.6994 C.2     1  UNL1        0.2261
      9 O         142.4385  138.7678  166.8936 O.2     1  UNL1       -0.2748
     10 H         139.8070  140.3352  165.2299 H       1  UNL1        0.1550
     11 C         143.5299  140.0450  163.9805 C.3     1  UNL1        0.0570
     12 C         142.4619  139.0723  163.5766 C.ar    1  UNL1        0.1140
     13 N         142.5595  138.0655  162.4690 N.ar    1  UNL1       -0.0804
     14 O         141.2668  137.3065  162.4172 O.2     1  UNL1       -0.3568
     15 C         140.3703  137.8441  163.4930 C.ar    1  UNL1        0.1678
     16 C         138.9793  137.3731  163.7985 C.3     1  UNL1        0.0767
     17 C         141.1089  138.9354  164.2095 C.ar    1  UNL1        0.1005
     18 C         142.2571  142.4548  167.1432 C.2     1  UNL1        0.1731
     19 O         143.7143  142.3688  167.4881 O.2     1  UNL1       -0.2913
     20 C         141.8255  143.1244  165.8722 C.ar    1  UNL1        0.0347
     21 C         142.8470  143.5129  164.8448 C.ar    1  UNL1        0.0029
     22 C         142.4154  144.1825  163.5739 C.ar    1  UNL1        0.0016
     23 C         140.9622  144.4637  163.3304 C.ar    1  UNL1        0.0171
     24 C         139.9407  144.0752  164.3578 C.ar    1  UNL1        0.0016
     25 C         140.3723  143.4056  165.6287 C.ar    1  UNL1        0.0029
     26 C         140.5305  145.1333  162.0594 C.ar    1  UNL1        0.0754
     27 C         140.8576  144.6784  160.6680 C.ar    1  UNL1        0.0409
     28 C         140.2252  145.6393  159.7054 C.ar    1  UNL1        0.1214
     29 N         139.5073  146.6882  160.5019 N.ar    1  UNL1       -0.1711
     30 N         139.6960  146.3755  161.9567 N.ar    1  UNL1       -0.2757
     31 H         139.3354  146.8944  162.7117 H       1  UNL1        0.1889
@<TRIPOS>BOND
     1    11    12    1
     2    12    13   ar
     3    13    14   ar
     4    14    15   ar
     5    15    16    1
     6    15    17   ar
     7    17     7    1
     8     7     8   am
     9     8     9    2
    10     1     8    1
    11     1     2    1
    12     2     3    1
    13     3     4    1
    14     4     5    1
    15     5     6    1
    16     6    18    1
    17    18    19    2
    18    18    20    1
    19    20    21   ar
    20    21    22   ar
    21    22    23   ar
    22    23    26    1
    23    26    27   ar
    24    27    28   ar
    25    28    29   ar
    26    29    30   ar
    27    23    24   ar
    28    24    25   ar
    29    17    12   ar
    30     6     1    1
    31    25    20   ar
    32    30    26   ar
    33     7    10    1
    34    30    31    1
