@<TRIPOS>MOLECULE
*****
 35 38 0 0 0
SMALL
GASTEIGER

@<TRIPOS>ATOM
      1 C         140.4753  141.8072  167.2190 C.ar    1  UNL1        0.0533
      2 C         139.8841  140.7332  166.3547 C.ar    1  UNL1        0.0489
      3 C         139.0890  139.6234  166.9761 C.ar    1  UNL1        0.1345
      4 N         138.8851  139.5876  168.4618 N.ar    1  UNL1       -0.2288
      5 C         139.4763  140.6616  169.3260 C.ar    1  UNL1        0.1060
      6 C         140.2715  141.7714  168.7046 C.ar    1  UNL1        0.0854
      7 C         140.8627  142.8454  169.5689 C.2     1  UNL1        0.2455
      8 N         139.9652  143.7529  170.3569 N.am    1  UNL1       -0.3252
      9 O         142.3515  143.0119  169.6451 O.2     1  UNL1       -0.2703
     10 H         138.9881  143.6436  170.3068 H       1  UNL1        0.1453
     11 H         140.3533  144.4578  170.9241 H       1  UNL1        0.1453
     12 N         141.2704  142.9170  166.5976 N.pl3   1  UNL1       -0.3337
     13 H         141.8875  143.4495  167.1498 H       1  UNL1        0.1468
     14 N         140.8355  143.8124  162.2091 N.pl3   1  UNL1       -0.2931
     15 C         139.8046  144.3052  163.1808 C.3     1  UNL1        0.0939
     16 C         139.9496  144.0067  164.6437 C.3     1  UNL1        0.0410
     17 C         141.1255  143.2155  165.1347 C.3     1  UNL1        0.0724
     18 C         142.1564  142.7227  164.1630 C.3     1  UNL1        0.0410
     19 C         142.0114  143.0212  162.7002 C.3     1  UNL1        0.0939
     20 C         140.4006  144.7079  157.8206 C.ar    1  UNL1        0.0877
     21 C         139.5213  143.6788  158.4668 C.ar    1  UNL1        0.0147
     22 C         139.6663  143.3803  159.9296 C.ar    1  UNL1        0.0350
     23 C         140.6906  144.1109  160.7462 C.ar    1  UNL1        0.1317
     24 N         141.5699  145.1400  160.1000 N.ar    1  UNL1       -0.2285
     25 C         141.4250  145.4385  158.6372 C.ar    1  UNL1        0.1105
     26 N         140.1107  145.3049  154.8949 N.1     1  UNL1       -0.1908
     27 C         140.2557  145.0064  156.3577 C.1     1  UNL1        0.1020
     28 N         138.4977  138.5493  166.1119 N.pl3   1  UNL1       -0.2832
     29 H         137.6769  138.0855  166.3955 H       1  UNL1        0.1550
     30 C         139.1570  138.1820  164.8156 C.ar    1  UNL1        0.1365
     31 C         140.4787  137.4726  164.8210 C.ar    1  UNL1        0.0551
     32 C         141.1380  137.1053  163.5247 C.ar    1  UNL1        0.1036
     33 N         140.4756  137.4474  162.2230 N.ar    1  UNL1       -0.2223
     34 C         139.1540  138.1568  162.2177 C.ar    1  UNL1        0.2001
     35 N         138.4947  138.5241  163.5140 N.ar    1  UNL1       -0.2089
@<TRIPOS>BOND
     1    26    27    3
     2    27    20    1
     3    20    21   ar
     4    21    22   ar
     5    22    23   ar
     6    23    14    1
     7    14    15    1
     8    15    16    1
     9    16    17    1
    10    17    12    1
    11    12     1    1
    12     1     2   ar
    13     2     3   ar
    14     3    28    1
    15    28    30    1
    16    30    31   ar
    17    31    32   ar
    18    32    33   ar
    19    33    34   ar
    20    34    35   ar
    21     3     4   ar
    22     4     5   ar
    23     5     6   ar
    24     6     7    1
    25     7     8   am
    26     7     9    2
    27    17    18    1
    28    18    19    1
    29    23    24   ar
    30    24    25   ar
    31    25    20   ar
    32    19    14    1
    33     6     1   ar
    34    35    30   ar
    35    12    13    1
    36    28    29    1
    37     8    10    1
    38     8    11    1
@<TRIPOS>MOLECULE
*****
 35 38 0 0 0
SMALL
GASTEIGER

@<TRIPOS>ATOM
      1 C         141.8437  141.1482  167.2916 C.ar    1  UNL1        0.0533
      2 C         140.6462  140.7292  166.4913 C.ar    1  UNL1        0.0489
      3 C         139.4939  140.0468  167.1669 C.ar    1  UNL1        0.1345
      4 N         139.5391  139.7835  168.6429 N.ar    1  UNL1       -0.2288
      5 C         140.7365  140.2024  169.4433 C.ar    1  UNL1        0.1060
      6 C         141.8889  140.8849  168.7676 C.ar    1  UNL1        0.0854
      7 C         143.0863  141.3038  169.5679 C.2     1  UNL1        0.2455
      8 N         143.6031  140.4192  170.6635 N.am    1  UNL1       -0.3252
      9 O         143.7669  142.6075  169.2727 O.2     1  UNL1       -0.2703
     10 H         143.1563  139.5636  170.8573 H       1  UNL1        0.1453
     11 H         144.3890  140.6942  171.1888 H       1  UNL1        0.1453
     12 N         142.9960  141.8306  166.6159 N.pl3   1  UNL1       -0.3337
     13 H         143.8321  141.9904  167.1105 H       1  UNL1        0.1468
     14 N         142.6310  143.1475  162.3284 N.pl3   1  UNL1       -0.2931
     15 C         143.2657  141.8286  162.6565 C.3     1  UNL1        0.0939
     16 C         143.3874  141.3897  164.0857 C.3     1  UNL1        0.0410
     17 C         142.8743  142.2696  165.1868 C.3     1  UNL1        0.0724
     18 C         142.2396  143.5884  164.8587 C.3     1  UNL1        0.0410
     19 C         142.1180  144.0274  163.4295 C.3     1  UNL1        0.0939
     20 C         142.2661  144.4644  158.0409 C.ar    1  UNL1        0.0877
     21 C         143.1417  143.2993  158.3957 C.ar    1  UNL1        0.0147
     22 C         143.2633  142.8604  159.8249 C.ar    1  UNL1        0.0350
     23 C         142.5094  143.5865  160.8993 C.ar    1  UNL1        0.1317
     24 N         141.6338  144.7515  160.5445 N.ar    1  UNL1       -0.2285
     25 C         141.5121  145.1905  159.1153 C.ar    1  UNL1        0.1105
     26 N         142.0227  145.3423  155.1826 N.1     1  UNL1       -0.1908
     27 C         142.1444  144.9033  156.6118 C.1     1  UNL1        0.1020
     28 N         138.2964  139.6278  166.3666 N.pl3   1  UNL1       -0.2832
     29 H         137.4133  139.5667  166.7974 H       1  UNL1        0.1550
     30 C         138.4445  139.3019  164.9099 C.ar    1  UNL1        0.1365
     31 C         138.9678  137.9599  164.4911 C.ar    1  UNL1        0.0551
     32 C         139.1159  137.6340  163.0344 C.ar    1  UNL1        0.1036
     33 N         138.7408  138.6501  161.9966 N.ar    1  UNL1       -0.2223
     34 C         138.2175  139.9920  162.4155 C.ar    1  UNL1        0.2001
     35 N         138.0694  140.3179  163.8722 N.ar    1  UNL1       -0.2089
@<TRIPOS>BOND
     1    26    27    3
     2    27    20    1
     3    20    21   ar
     4    21    22   ar
     5    22    23   ar
     6    23    14    1
     7    14    15    1
     8    15    16    1
     9    16    17    1
    10    17    12    1
    11    12     1    1
    12     1     2   ar
    13     2     3   ar
    14     3    28    1
    15    28    30    1
    16    30    31   ar
    17    31    32   ar
    18    32    33   ar
    19    33    34   ar
    20    34    35   ar
    21     3     4   ar
    22     4     5   ar
    23     5     6   ar
    24     6     7    1
    25     7     8   am
    26     7     9    2
    27    17    18    1
    28    18    19    1
    29    23    24   ar
    30    24    25   ar
    31    25    20   ar
    32    19    14    1
    33     6     1   ar
    34    35    30   ar
    35    12    13    1
    36    28    29    1
    37     8    10    1
    38     8    11    1
@<TRIPOS>MOLECULE
*****
 35 38 0 0 0
SMALL
GASTEIGER

@<TRIPOS>ATOM
      1 C         141.0970  141.8176  167.9187 C.ar    1  UNL1        0.0533
      2 C         141.8469  140.7559  167.1700 C.ar    1  UNL1        0.0489
      3 C         142.6607  139.7428  167.9191 C.ar    1  UNL1        0.1345
      4 N         142.7247  139.7913  169.4169 N.ar    1  UNL1       -0.2288
      5 C         141.9749  140.8529  170.1657 C.ar    1  UNL1        0.1060
      6 C         141.1610  141.8661  169.4165 C.ar    1  UNL1        0.0854
      7 C         140.4112  142.9278  170.1653 C.2     1  UNL1        0.2455
      8 N         139.2253  142.5571  171.0057 N.am    1  UNL1       -0.3252
      9 O         140.8472  144.3600  170.0736 O.2     1  UNL1       -0.2703
     10 H         138.9391  141.6171  171.0659 H       1  UNL1        0.1453
     11 H         138.7331  143.2540  171.4971 H       1  UNL1        0.1453
     12 N         140.2831  142.8307  167.1696 N.pl3   1  UNL1       -0.3337
     13 H         139.9998  143.6615  167.6153 H       1  UNL1        0.1468
     14 N         139.1365  142.0725  162.8847 N.pl3   1  UNL1       -0.2931
     15 C         140.0250  143.2307  163.2296 C.3     1  UNL1        0.0939
     16 C         140.4072  143.4834  164.6579 C.3     1  UNL1        0.0410
     17 C         139.9009  142.5779  165.7413 C.3     1  UNL1        0.0724
     18 C         139.0124  141.4198  165.3963 C.3     1  UNL1        0.0410
     19 C         138.6302  141.1670  163.9680 C.3     1  UNL1        0.0939
     20 C         137.9898  141.3143  158.5998 C.ar    1  UNL1        0.0877
     21 C         137.8707  140.2154  159.6138 C.ar    1  UNL1        0.0147
     22 C         138.2529  140.4681  161.0421 C.ar    1  UNL1        0.0350
     23 C         138.7543  141.8198  161.4564 C.ar    1  UNL1        0.1317
     24 N         138.8734  142.9186  160.4424 N.ar    1  UNL1       -0.2285
     25 C         138.4912  142.6659  159.0141 C.ar    1  UNL1        0.1105
     26 N         137.2254  140.8088  155.7432 N.1     1  UNL1       -0.1908
     27 C         137.6076  141.0616  157.1715 C.1     1  UNL1        0.1020
     28 N         143.4106  138.6810  167.1704 N.pl3   1  UNL1       -0.2832
     29 H         143.9704  138.0358  167.6598 H       1  UNL1        0.1550
     30 C         143.3075  138.6024  165.6760 C.ar    1  UNL1        0.1365
     31 C         144.3654  139.2296  164.8172 C.ar    1  UNL1        0.0551
     32 C         144.2623  139.1510  163.3228 C.ar    1  UNL1        0.1036
     33 N         143.1012  138.4452  162.6872 N.ar    1  UNL1       -0.2223
     34 C         142.0434  137.8181  163.5460 C.ar    1  UNL1        0.2001
     35 N         142.1465  137.8967  165.0404 N.ar    1  UNL1       -0.2089
@<TRIPOS>BOND
     1    26    27    3
     2    27    20    1
     3    20    21   ar
     4    21    22   ar
     5    22    23   ar
     6    23    14    1
     7    14    15    1
     8    15    16    1
     9    16    17    1
    10    17    12    1
    11    12     1    1
    12     1     2   ar
    13     2     3   ar
    14     3    28    1
    15    28    30    1
    16    30    31   ar
    17    31    32   ar
    18    32    33   ar
    19    33    34   ar
    20    34    35   ar
    21     3     4   ar
    22     4     5   ar
    23     5     6   ar
    24     6     7    1
    25     7     8   am
    26     7     9    2
    27    17    18    1
    28    18    19    1
    29    23    24   ar
    30    24    25   ar
    31    25    20   ar
    32    19    14    1
    33     6     1   ar
    34    35    30   ar
    35    12    13    1
    36    28    29    1
    37     8    10    1
    38     8    11    1
@<TRIPOS>MOLECULE
*****
 35 38 0 0 0
SMALL
GASTEIGER

@<TRIPOS>ATOM
      1 C         141.0195  140.8840  167.8340 C.ar    1  UNL1        0.0533
      2 C         141.8569  140.1342  166.8408 C.ar    1  UNL1        0.0489
      3 C         142.8466  139.1115  167.3146 C.ar    1  UNL1        0.1345
      4 N         142.9989  138.8386  168.7817 N.ar    1  UNL1       -0.2288
      5 C         142.1615  139.5883  169.7749 C.ar    1  UNL1        0.1060
      6 C         141.1718  140.6111  169.3011 C.ar    1  UNL1        0.0854
      7 C         140.3344  141.3609  170.2944 C.2     1  UNL1        0.2455
      8 N         140.9831  142.3118  171.2561 N.am    1  UNL1       -0.3252
      9 O         138.8483  141.1597  170.3259 O.2     1  UNL1       -0.2703
     10 H         141.9585  142.4439  171.2353 H       1  UNL1        0.1453
     11 H         140.4335  142.8039  171.9080 H       1  UNL1        0.1453
     12 N         140.0298  141.9067  167.3602 N.pl3   1  UNL1       -0.3337
     13 H         139.3827  142.2954  167.9923 H       1  UNL1        0.1468
     14 N         140.0180  143.1983  163.0496 N.pl3   1  UNL1       -0.2931
     15 C         141.0448  143.7485  163.9946 C.3     1  UNL1        0.0939
     16 C         141.0487  143.3179  165.4314 C.3     1  UNL1        0.0410
     17 C         140.0259  142.3372  165.9233 C.3     1  UNL1        0.0724
     18 C         138.9991  141.7871  164.9783 C.3     1  UNL1        0.0410
     19 C         138.9952  142.2176  163.5414 C.3     1  UNL1        0.0939
     20 C         140.0063  144.4899  158.7389 C.ar    1  UNL1        0.0877
     21 C         139.3713  143.1897  159.1340 C.ar    1  UNL1        0.0147
     22 C         139.3752  142.7591  160.5709 C.ar    1  UNL1        0.0350
     23 C         140.0141  143.6288  161.6127 C.ar    1  UNL1        0.1317
     24 N         140.6491  144.9291  161.2176 N.ar    1  UNL1       -0.2285
     25 C         140.6452  145.3596  159.7807 C.ar    1  UNL1        0.1105
     26 N         139.9985  145.3510  155.8652 N.1     1  UNL1       -0.1908
     27 C         140.0024  144.9204  157.3020 C.1     1  UNL1        0.1020
     28 N         143.6840  138.3616  166.3213 N.pl3   1  UNL1       -0.2832
     29 H         144.1884  137.5650  166.6045 H       1  UNL1        0.1550
     30 C         143.7530  138.8257  164.8966 C.ar    1  UNL1        0.1365
     31 C         144.7549  139.8672  164.4947 C.ar    1  UNL1        0.0551
     32 C         144.8239  140.3313  163.0699 C.ar    1  UNL1        0.1036
     33 N         143.8910  139.7537  162.0471 N.ar    1  UNL1       -0.2223
     34 C         142.8892  138.7122  162.4489 C.ar    1  UNL1        0.2001
     35 N         142.8202  138.2481  163.8737 N.ar    1  UNL1       -0.2089
@<TRIPOS>BOND
     1    26    27    3
     2    27    20    1
     3    20    21   ar
     4    21    22   ar
     5    22    23   ar
     6    23    14    1
     7    14    15    1
     8    15    16    1
     9    16    17    1
    10    17    12    1
    11    12     1    1
    12     1     2   ar
    13     2     3   ar
    14     3    28    1
    15    28    30    1
    16    30    31   ar
    17    31    32   ar
    18    32    33   ar
    19    33    34   ar
    20    34    35   ar
    21     3     4   ar
    22     4     5   ar
    23     5     6   ar
    24     6     7    1
    25     7     8   am
    26     7     9    2
    27    17    18    1
    28    18    19    1
    29    23    24   ar
    30    24    25   ar
    31    25    20   ar
    32    19    14    1
    33     6     1   ar
    34    35    30   ar
    35    12    13    1
    36    28    29    1
    37     8    10    1
    38     8    11    1
@<TRIPOS>MOLECULE
*****
 35 38 0 0 0
SMALL
GASTEIGER

@<TRIPOS>ATOM
      1 C         138.5741  140.3156  158.1930 C.ar    1  UNL1        0.0533
      2 C         139.9872  139.8798  158.4453 C.ar    1  UNL1        0.0489
      3 C         141.0558  140.1788  157.4360 C.ar    1  UNL1        0.1345
      4 N         140.7115  140.9136  156.1745 N.ar    1  UNL1       -0.2288
      5 C         139.2985  141.3494  155.9222 C.ar    1  UNL1        0.1060
      6 C         138.2298  141.0504  156.9314 C.ar    1  UNL1        0.0854
      7 C         136.8169  141.4862  156.6791 C.2     1  UNL1        0.2455
      8 N         136.5303  142.8997  156.2671 N.am    1  UNL1       -0.3252
      9 O         135.6907  140.5084  156.8388 O.2     1  UNL1       -0.2703
     10 H         137.2695  143.5414  156.1623 H       1  UNL1        0.1453
     11 H         135.6029  143.1857  156.1015 H       1  UNL1        0.1453
     12 N         137.5055  140.0166  159.2022 N.pl3   1  UNL1       -0.3337
     13 H         136.5939  139.7960  158.9032 H       1  UNL1        0.1468
     14 N         138.4667  140.1277  163.5970 N.pl3   1  UNL1       -0.2931
     15 C         138.2371  138.8129  162.9125 C.3     1  UNL1        0.0939
     16 C         137.9166  138.7759  161.4476 C.3     1  UNL1        0.0410
     17 C         137.8259  140.0536  160.6672 C.3     1  UNL1        0.0724
     18 C         138.0556  141.3684  161.3516 C.3     1  UNL1        0.0410
     19 C         138.3760  141.4054  162.8165 C.3     1  UNL1        0.0939
     20 C         139.4280  140.2388  167.9917 C.ar    1  UNL1        0.0877
     21 C         138.5132  139.1804  167.4506 C.ar    1  UNL1        0.0147
     22 C         138.1928  139.1434  165.9857 C.ar    1  UNL1        0.0350
     23 C         138.7871  140.1647  165.0619 C.ar    1  UNL1        0.1317
     24 N         139.7019  141.2232  165.6030 N.ar    1  UNL1       -0.2285
     25 C         140.0223  141.2602  167.0679 C.ar    1  UNL1        0.1105
     26 N         140.0688  140.3129  170.9215 N.1     1  UNL1       -0.1908
     27 C         139.7484  140.2759  169.4566 C.1     1  UNL1        0.1020
     28 N         142.4688  139.7430  157.6883 N.pl3   1  UNL1       -0.2832
     29 H         143.0589  140.2903  158.2552 H       1  UNL1        0.1550
     30 C         142.9825  138.4732  157.0769 C.ar    1  UNL1        0.1365
     31 C         142.4511  137.1492  157.5401 C.ar    1  UNL1        0.0551
     32 C         142.9649  135.8794  156.9286 C.ar    1  UNL1        0.1036
     33 N         144.0100  135.9338  155.8540 N.ar    1  UNL1       -0.2223
     34 C         144.5413  137.2578  155.3908 C.ar    1  UNL1        0.2001
     35 N         144.0276  138.5276  156.0022 N.ar    1  UNL1       -0.2089
@<TRIPOS>BOND
     1    26    27    3
     2    27    20    1
     3    20    21   ar
     4    21    22   ar
     5    22    23   ar
     6    23    14    1
     7    14    15    1
     8    15    16    1
     9    16    17    1
    10    17    12    1
    11    12     1    1
    12     1     2   ar
    13     2     3   ar
    14     3    28    1
    15    28    30    1
    16    30    31   ar
    17    31    32   ar
    18    32    33   ar
    19    33    34   ar
    20    34    35   ar
    21     3     4   ar
    22     4     5   ar
    23     5     6   ar
    24     6     7    1
    25     7     8   am
    26     7     9    2
    27    17    18    1
    28    18    19    1
    29    23    24   ar
    30    24    25   ar
    31    25    20   ar
    32    19    14    1
    33     6     1   ar
    34    35    30   ar
    35    12    13    1
    36    28    29    1
    37     8    10    1
    38     8    11    1
@<TRIPOS>MOLECULE
*****
 35 38 0 0 0
SMALL
GASTEIGER

@<TRIPOS>ATOM
      1 C         141.5015  140.6552  167.1814 C.ar    1  UNL1        0.0533
      2 C         142.4471  141.4854  166.3648 C.ar    1  UNL1        0.0489
      3 C         143.3718  142.4532  167.0418 C.ar    1  UNL1        0.1345
      4 N         143.3509  142.5908  168.5354 N.ar    1  UNL1       -0.2288
      5 C         142.4053  141.7607  169.3519 C.ar    1  UNL1        0.1060
      6 C         141.4806  140.7928  168.6749 C.ar    1  UNL1        0.0854
      7 C         140.5351  139.9627  169.4914 C.2     1  UNL1        0.2455
      8 N         141.0297  139.2446  170.7120 N.am    1  UNL1       -0.3252
      9 O         139.0949  139.8506  169.0874 O.2     1  UNL1       -0.2703
     10 H         141.9750  139.3182  170.9772 H       1  UNL1        0.1453
     11 H         140.4091  138.6998  171.2479 H       1  UNL1        0.1453
     12 N         140.5769  139.6874  166.5044 N.pl3   1  UNL1       -0.3337
     13 H         139.8664  139.2422  167.0204 H       1  UNL1        0.1468
     14 N         141.0504  138.8184  162.1145 N.pl3   1  UNL1       -0.2931
     15 C         141.8115  138.0124  163.1250 C.3     1  UNL1        0.0939
     16 C         141.6537  138.3021  164.5883 C.3     1  UNL1        0.0410
     17 C         140.7348  139.3977  165.0411 C.3     1  UNL1        0.0724
     18 C         139.9737  140.2037  164.0306 C.3     1  UNL1        0.0410
     19 C         140.1315  139.9141  162.5674 C.3     1  UNL1        0.0939
     20 C         141.5240  137.9495  157.7247 C.ar    1  UNL1        0.0877
     21 C         140.1952  138.3905  158.2629 C.ar    1  UNL1        0.0147
     22 C         140.0373  138.6801  159.7262 C.ar    1  UNL1        0.0350
     23 C         141.2083  138.5288  160.6513 C.ar    1  UNL1        0.1317
     24 N         142.5371  138.0878  160.1131 N.ar    1  UNL1       -0.2285
     25 C         142.6950  137.7982  158.6498 C.ar    1  UNL1        0.1105
     26 N         141.8397  137.3702  154.7981 N.1     1  UNL1       -0.1908
     27 C         141.6818  137.6599  156.2614 C.1     1  UNL1        0.1020
     28 N         144.3174  143.2834  166.2253 N.pl3   1  UNL1       -0.2832
     29 H         144.8888  143.9541  166.6646 H       1  UNL1        0.1550
     30 C         144.3924  143.0917  164.7395 C.ar    1  UNL1        0.1365
     31 C         145.3131  142.0577  164.1622 C.ar    1  UNL1        0.0551
     32 C         145.3880  141.8660  162.6764 C.ar    1  UNL1        0.1036
     33 N         144.5424  142.7084  161.7679 N.ar    1  UNL1       -0.2223
     34 C         143.6217  143.7423  162.3452 C.ar    1  UNL1        0.2001
     35 N         143.5467  143.9340  163.8310 N.ar    1  UNL1       -0.2089
@<TRIPOS>BOND
     1    26    27    3
     2    27    20    1
     3    20    21   ar
     4    21    22   ar
     5    22    23   ar
     6    23    14    1
     7    14    15    1
     8    15    16    1
     9    16    17    1
    10    17    12    1
    11    12     1    1
    12     1     2   ar
    13     2     3   ar
    14     3    28    1
    15    28    30    1
    16    30    31   ar
    17    31    32   ar
    18    32    33   ar
    19    33    34   ar
    20    34    35   ar
    21     3     4   ar
    22     4     5   ar
    23     5     6   ar
    24     6     7    1
    25     7     8   am
    26     7     9    2
    27    17    18    1
    28    18    19    1
    29    23    24   ar
    30    24    25   ar
    31    25    20   ar
    32    19    14    1
    33     6     1   ar
    34    35    30   ar
    35    12    13    1
    36    28    29    1
    37     8    10    1
    38     8    11    1
@<TRIPOS>MOLECULE
*****
 35 38 0 0 0
SMALL
GASTEIGER

@<TRIPOS>ATOM
      1 C         139.8609  143.9402  159.0787 C.ar    1  UNL1        0.0533
      2 C         139.1946  142.6052  159.2333 C.ar    1  UNL1        0.0489
      3 C         138.7818  141.8278  158.0188 C.ar    1  UNL1        0.1345
      4 N         139.0355  142.3853  156.6495 N.ar    1  UNL1       -0.2288
      5 C         139.7018  143.7202  156.4948 C.ar    1  UNL1        0.1060
      6 C         140.1145  144.4977  157.7095 C.ar    1  UNL1        0.0854
      7 C         140.7809  145.8326  157.5548 C.2     1  UNL1        0.2455
      8 N         140.0648  146.9522  156.8593 N.am    1  UNL1       -0.3252
      9 O         142.1633  146.0479  158.0956 O.2     1  UNL1       -0.2703
     10 H         139.1574  146.8109  156.5043 H       1  UNL1        0.1453
     11 H         140.5021  147.8284  156.7578 H       1  UNL1        0.1453
     12 N         140.2736  144.7176  160.2933 N.pl3   1  UNL1       -0.3337
     13 H         140.5880  145.6459  160.2002 H       1  UNL1        0.1468
     14 N         140.0750  142.8068  164.3626 N.pl3   1  UNL1       -0.2931
     15 C         138.9890  143.7415  163.9191 C.3     1  UNL1        0.0939
     16 C         139.0552  144.3785  162.5627 C.3     1  UNL1        0.0410
     17 C         140.2074  144.0807  161.6497 C.3     1  UNL1        0.0724
     18 C         141.2935  143.1459  162.0932 C.3     1  UNL1        0.0410
     19 C         141.2273  142.5090  163.4496 C.3     1  UNL1        0.0939
     20 C         139.8764  140.8959  168.4319 C.ar    1  UNL1        0.0877
     21 C         140.4150  142.2878  168.2824 C.ar    1  UNL1        0.0147
     22 C         140.4813  142.9247  166.9260 C.ar    1  UNL1        0.0350
     23 C         140.0088  142.1698  165.7190 C.ar    1  UNL1        0.1317
     24 N         139.4701  140.7779  165.8685 N.ar    1  UNL1       -0.2285
     25 C         139.4039  140.1409  167.2249 C.ar    1  UNL1        0.1105
     26 N         139.7439  139.6220  171.1447 N.1     1  UNL1       -0.1908
     27 C         139.8102  140.2589  169.7883 C.1     1  UNL1        0.1020
     28 N         138.1155  140.4928  158.1734 N.pl3   1  UNL1       -0.2832
     29 H         137.5117  140.1597  157.4707 H       1  UNL1        0.1550
     30 C         138.3691  139.6655  159.3986 C.ar    1  UNL1        0.1365
     31 C         139.6378  138.8745  159.5201 C.ar    1  UNL1        0.0551
     32 C         139.8914  138.0471  160.7453 C.ar    1  UNL1        0.1036
     33 N         138.8762  138.0108  161.8491 N.ar    1  UNL1       -0.2223
     34 C         137.6076  138.8017  161.7276 C.ar    1  UNL1        0.2001
     35 N         137.3540  139.6291  160.5023 N.ar    1  UNL1       -0.2089
@<TRIPOS>BOND
     1    26    27    3
     2    27    20    1
     3    20    21   ar
     4    21    22   ar
     5    22    23   ar
     6    23    14    1
     7    14    15    1
     8    15    16    1
     9    16    17    1
    10    17    12    1
    11    12     1    1
    12     1     2   ar
    13     2     3   ar
    14     3    28    1
    15    28    30    1
    16    30    31   ar
    17    31    32   ar
    18    32    33   ar
    19    33    34   ar
    20    34    35   ar
    21     3     4   ar
    22     4     5   ar
    23     5     6   ar
    24     6     7    1
    25     7     8   am
    26     7     9    2
    27    17    18    1
    28    18    19    1
    29    23    24   ar
    30    24    25   ar
    31    25    20   ar
    32    19    14    1
    33     6     1   ar
    34    35    30   ar
    35    12    13    1
    36    28    29    1
    37     8    10    1
    38     8    11    1
@<TRIPOS>MOLECULE
*****
 35 38 0 0 0
SMALL
GASTEIGER

@<TRIPOS>ATOM
      1 C         141.1860  141.6749  167.6783 C.ar    1  UNL1        0.0533
      2 C         141.8638  140.6824  166.7807 C.ar    1  UNL1        0.0489
      3 C         142.6363  139.5411  167.3727 C.ar    1  UNL1        0.1345
      4 N         142.7310  139.3921  168.8623 N.ar    1  UNL1       -0.2288
      5 C         142.0533  140.3846  169.7598 C.ar    1  UNL1        0.1060
      6 C         141.2807  141.5260  169.1679 C.ar    1  UNL1        0.0854
      7 C         140.6030  142.5184  170.0655 C.2     1  UNL1        0.2455
      8 N         141.2344  143.8556  170.3170 N.am    1  UNL1       -0.3252
      9 O         139.2939  142.1736  170.7115 O.2     1  UNL1       -0.2703
     10 H         142.0936  144.0819  169.8930 H       1  UNL1        0.1453
     11 H         140.7895  144.5070  170.9062 H       1  UNL1        0.1453
     12 N         140.4135  142.8163  167.0863 N.pl3   1  UNL1       -0.3337
     13 H         140.0407  143.5145  167.6717 H       1  UNL1        0.1468
     14 N         139.7997  143.0488  162.6344 N.pl3   1  UNL1       -0.2931
     15 C         138.8424  142.2663  163.4836 C.3     1  UNL1        0.0939
     16 C         139.0470  142.1888  164.9676 C.3     1  UNL1        0.0410
     17 C         140.2089  142.8938  165.6023 C.3     1  UNL1        0.0724
     18 C         141.1662  143.6763  164.7531 C.3     1  UNL1        0.0410
     19 C         140.9616  143.7538  163.2692 C.3     1  UNL1        0.0939
     20 C         139.1860  143.2814  158.1825 C.ar    1  UNL1        0.0877
     21 C         140.0714  144.2776  158.8706 C.ar    1  UNL1        0.0147
     22 C         140.2760  144.2001  160.3546 C.ar    1  UNL1        0.0350
     23 C         139.5951  143.1263  161.1505 C.ar    1  UNL1        0.1317
     24 N         138.7097  142.1301  160.4624 N.ar    1  UNL1       -0.2285
     25 C         138.5051  142.2076  158.9784 C.ar    1  UNL1        0.1105
     26 N         138.7768  143.4364  155.2146 N.1     1  UNL1       -0.1908
     27 C         138.9814  143.3589  156.6986 C.1     1  UNL1        0.1020
     28 N         143.3141  138.5486  166.4751 N.pl3   1  UNL1       -0.2832
     29 H         144.0980  138.0481  166.7978 H       1  UNL1        0.1550
     30 C         142.7974  138.3187  165.0858 C.ar    1  UNL1        0.1365
     31 C         141.5452  137.5204  164.8738 C.ar    1  UNL1        0.0551
     32 C         141.0285  137.2905  163.4845 C.ar    1  UNL1        0.1036
     33 N         141.7640  137.8589  162.3072 N.ar    1  UNL1       -0.2223
     34 C         143.0161  138.6571  162.5192 C.ar    1  UNL1        0.2001
     35 N         143.5328  138.8870  163.9085 N.ar    1  UNL1       -0.2089
@<TRIPOS>BOND
     1    26    27    3
     2    27    20    1
     3    20    21   ar
     4    21    22   ar
     5    22    23   ar
     6    23    14    1
     7    14    15    1
     8    15    16    1
     9    16    17    1
    10    17    12    1
    11    12     1    1
    12     1     2   ar
    13     2     3   ar
    14     3    28    1
    15    28    30    1
    16    30    31   ar
    17    31    32   ar
    18    32    33   ar
    19    33    34   ar
    20    34    35   ar
    21     3     4   ar
    22     4     5   ar
    23     5     6   ar
    24     6     7    1
    25     7     8   am
    26     7     9    2
    27    17    18    1
    28    18    19    1
    29    23    24   ar
    30    24    25   ar
    31    25    20   ar
    32    19    14    1
    33     6     1   ar
    34    35    30   ar
    35    12    13    1
    36    28    29    1
    37     8    10    1
    38     8    11    1
@<TRIPOS>MOLECULE
*****
 35 38 0 0 0
SMALL
GASTEIGER

@<TRIPOS>ATOM
      1 C         142.9916  142.3416  159.1813 C.ar    1  UNL1        0.0533
      2 C         141.5341  142.5670  159.4549 C.ar    1  UNL1        0.0489
      3 C         140.5217  142.3217  158.3756 C.ar    1  UNL1        0.1345
      4 N         140.9669  141.8511  157.0227 N.ar    1  UNL1       -0.2288
      5 C         142.4243  141.6257  156.7491 C.ar    1  UNL1        0.1060
      6 C         143.4368  141.8709  157.8284 C.ar    1  UNL1        0.0854
      7 C         144.8943  141.6456  157.5548 C.2     1  UNL1        0.2455
      8 N         145.3586  140.3322  156.9986 N.am    1  UNL1       -0.3252
      9 O         145.8874  142.7335  157.8375 O.2     1  UNL1       -0.2703
     10 H         144.7068  139.6181  156.8130 H       1  UNL1        0.1453
     11 H         146.3152  140.1843  156.8190 H       1  UNL1        0.1453
     12 N         144.0040  142.5868  160.2606 N.pl3   1  UNL1       -0.3337
     13 H         144.9428  142.7648  160.0237 H       1  UNL1        0.1468
     14 N         142.7498  142.5090  164.5816 N.pl3   1  UNL1       -0.2931
     15 C         142.8949  143.8194  163.8663 C.3     1  UNL1        0.0939
     16 C         143.3130  143.8453  162.4260 C.3     1  UNL1        0.0410
     17 C         143.5859  142.5609  161.7010 C.3     1  UNL1        0.0724
     18 C         143.4408  141.2505  162.4163 C.3     1  UNL1        0.0410
     19 C         143.0228  141.2245  163.8567 C.3     1  UNL1        0.0939
     20 C         141.4957  142.4311  168.9026 C.ar    1  UNL1        0.0877
     21 C         140.4694  142.6320  167.8273 C.ar    1  UNL1        0.0147
     22 C         140.8875  142.6580  166.3870 C.ar    1  UNL1        0.0350
     23 C         142.3318  142.4830  166.0220 C.ar    1  UNL1        0.1317
     24 N         143.3580  142.2822  167.0973 N.ar    1  UNL1       -0.2285
     25 C         142.9400  142.2562  168.5376 C.ar    1  UNL1        0.1105
     26 N         140.6596  142.3793  171.7833 N.1     1  UNL1       -0.1908
     27 C         141.0776  142.4052  170.3430 C.1     1  UNL1        0.1020
     28 N         139.0642  142.5471  158.6491 N.pl3   1  UNL1       -0.2832
     29 H         138.4735  142.8738  157.9324 H       1  UNL1        0.1550
     30 C         138.5065  142.2748  160.0147 C.ar    1  UNL1        0.1365
     31 C         138.1347  140.8757  160.4077 C.ar    1  UNL1        0.0551
     32 C         137.5770  140.6033  161.7733 C.ar    1  UNL1        0.1036
     33 N         137.3912  141.7301  162.7459 N.ar    1  UNL1       -0.2223
     34 C         137.7630  143.1291  162.3530 C.ar    1  UNL1        0.2001
     35 N         138.3207  143.4014  160.9874 N.ar    1  UNL1       -0.2089
@<TRIPOS>BOND
     1    26    27    3
     2    27    20    1
     3    20    21   ar
     4    21    22   ar
     5    22    23   ar
     6    23    14    1
     7    14    15    1
     8    15    16    1
     9    16    17    1
    10    17    12    1
    11    12     1    1
    12     1     2   ar
    13     2     3   ar
    14     3    28    1
    15    28    30    1
    16    30    31   ar
    17    31    32   ar
    18    32    33   ar
    19    33    34   ar
    20    34    35   ar
    21     3     4   ar
    22     4     5   ar
    23     5     6   ar
    24     6     7    1
    25     7     8   am
    26     7     9    2
    27    17    18    1
    28    18    19    1
    29    23    24   ar
    30    24    25   ar
    31    25    20   ar
    32    19    14    1
    33     6     1   ar
    34    35    30   ar
    35    12    13    1
    36    28    29    1
    37     8    10    1
    38     8    11    1
