@<TRIPOS>MOLECULE
*****
 32 35 0 0 0
SMALL
GASTEIGER

@<TRIPOS>ATOM
      1 C         140.3051  145.1448  157.1618 C.ar    1  UNL1        0.1535
      2 C         139.5179  144.0354  157.7938 C.ar    1  UNL1        0.0377
      3 C         139.7760  143.6509  159.2205 C.ar    1  UNL1        0.0239
      4 C         140.8215  144.3759  160.0152 C.ar    1  UNL1        0.1059
      5 N         141.6087  145.4852  159.3832 N.ar    1  UNL1       -0.1467
      6 N         141.3506  145.8697  157.9565 N.ar    1  UNL1       -0.1329
      7 C         141.0796  143.9913  161.4420 C.ar    1  UNL1        0.0532
      8 C         141.4979  142.5904  161.7772 C.ar    1  UNL1        0.0061
      9 C         141.7560  142.2059  163.2040 C.ar    1  UNL1        0.0194
     10 C         141.5958  143.2224  164.2954 C.ar    1  UNL1        0.0859
     11 C         141.1775  144.6233  163.9601 C.ar    1  UNL1        0.0558
     12 C         140.9194  145.0078  162.5334 C.ar    1  UNL1        0.1366
     13 O         140.5011  146.4088  162.1980 O.3     1  UNL1       -0.5054
     14 H         140.4011  147.0437  162.8798 H       1  UNL1        0.2922
     15 N         141.8540  142.8379  165.7221 N.ar    1  UNL1       -0.2280
     16 C         143.1792  142.4419  166.3026 C.ar    1  UNL1        0.1020
     17 C         142.9765  142.1412  167.7581 C.ar    1  UNL1        0.0431
     18 C         141.5259  142.3514  168.0772 C.ar    1  UNL1        0.1221
     19 N         140.8322  142.7820  166.8188 N.ar    1  UNL1       -0.1635
     20 C         140.0416  144.4788  154.6644 C.3     1  UNL1        0.1135
     21 N         140.0470  145.5293  155.7350 N.pl3   1  UNL1       -0.2916
     22 C         139.7942  146.9643  155.3790 C.3     1  UNL1        0.0768
     23 C         139.0719  147.8598  156.3414 C.3     1  UNL1        0.0342
     24 C         138.8191  149.2949  155.9854 C.3     1  UNL1        0.0435
     25 C         138.3462  150.7136  156.1013 C.3     1  UNL1        0.0158
     26 C         138.1853  149.2480  157.3441 C.3     1  UNL1        0.0158
     27 N         139.2887  149.8344  154.6670 N.3     1  UNL1       -0.3015
     28 C         140.0110  148.9389  153.7045 C.3     1  UNL1        0.0435
     29 C         140.7326  148.4874  152.4694 C.3     1  UNL1        0.0158
     30 C         140.0088  150.2171  152.9196 C.3     1  UNL1        0.0158
     31 C         140.2638  147.5039  154.0605 C.3     1  UNL1        0.0342
     32 H         139.9160  150.6117  154.8735 H       1  UNL1        0.1231
@<TRIPOS>BOND
     1    20    21    1
     2    21     1    1
     3     1     2   ar
     4     2     3   ar
     5     3     4   ar
     6     4     7    1
     7     7     8   ar
     8     8     9   ar
     9     9    10   ar
    10    10    15    1
    11    15    16   ar
    12    16    17   ar
    13    17    18   ar
    14    18    19   ar
    15    10    11   ar
    16    11    12   ar
    17    12    13    1
    18     4     5   ar
    19     5     6   ar
    20    21    22    1
    21    22    23    1
    22    23    24    1
    23    24    25    1
    24    24    26    1
    25    24    27    1
    26    27    28    1
    27    28    29    1
    28    28    30    1
    29    28    31    1
    30     6     1   ar
    31    31    22    1
    32    12     7   ar
    33    19    15   ar
    34    13    14    1
    35    27    32    1
@<TRIPOS>MOLECULE
*****
 32 35 0 0 0
SMALL
GASTEIGER

@<TRIPOS>ATOM
      1 C         140.1749  145.0833  157.2010 C.ar    1  UNL1        0.1535
      2 C         139.4151  143.9583  157.8389 C.ar    1  UNL1        0.0377
      3 C         139.6879  143.5830  159.2653 C.ar    1  UNL1        0.0239
      4 C         140.7205  144.3327  160.0538 C.ar    1  UNL1        0.1059
      5 N         141.4803  145.4577  159.4159 N.ar    1  UNL1       -0.1467
      6 N         141.2075  145.8330  157.9895 N.ar    1  UNL1       -0.1329
      7 C         140.9933  143.9573  161.4803 C.ar    1  UNL1        0.0532
      8 C         141.3505  142.5427  161.8284 C.ar    1  UNL1        0.0061
      9 C         141.6232  142.1673  163.2549 C.ar    1  UNL1        0.0194
     10 C         141.5388  143.2066  164.3332 C.ar    1  UNL1        0.0859
     11 C         141.1817  144.6213  163.9850 C.ar    1  UNL1        0.0558
     12 C         140.9089  144.9966  162.5586 C.ar    1  UNL1        0.1366
     13 O         140.5517  146.4113  162.2104 O.3     1  UNL1       -0.5054
     14 H         140.4990  147.0606  162.8839 H       1  UNL1        0.2922
     15 N         141.8116  142.8313  165.7596 N.ar    1  UNL1       -0.2280
     16 C         140.7835  142.6611  166.8386 C.ar    1  UNL1        0.1020
     17 C         141.4969  142.2849  168.1033 C.ar    1  UNL1        0.0431
     18 C         142.9658  142.2227  167.8060 C.ar    1  UNL1        0.1221
     19 N         143.1603  142.5604  166.3575 N.ar    1  UNL1       -0.1635
     20 C         139.8297  144.3947  154.7197 C.3     1  UNL1        0.1135
     21 N         139.9021  145.4587  155.7745 N.pl3   1  UNL1       -0.2916
     22 C         139.7018  146.8981  155.4029 C.3     1  UNL1        0.0768
     23 C         140.1871  147.4050  154.0773 C.3     1  UNL1        0.0342
     24 C         139.9868  148.8443  153.7057 C.3     1  UNL1        0.0435
     25 C         140.0298  150.1128  152.9064 C.3     1  UNL1        0.0158
     26 C         140.6874  148.3524  152.4740 C.3     1  UNL1        0.0158
     27 N         139.3012  149.7768  154.6598 N.3     1  UNL1       -0.3015
     28 C         138.8158  149.2699  155.9855 C.3     1  UNL1        0.0435
     29 C         138.1848  149.2619  157.3463 C.3     1  UNL1        0.0158
     30 C         138.3963  150.7065  156.0865 C.3     1  UNL1        0.0158
     31 C         139.0161  147.8305  156.3571 C.3     1  UNL1        0.0342
     32 H         138.4874  150.1513  154.1719 H       1  UNL1        0.1231
@<TRIPOS>BOND
     1    20    21    1
     2    21     1    1
     3     1     2   ar
     4     2     3   ar
     5     3     4   ar
     6     4     7    1
     7     7     8   ar
     8     8     9   ar
     9     9    10   ar
    10    10    15    1
    11    15    16   ar
    12    16    17   ar
    13    17    18   ar
    14    18    19   ar
    15    10    11   ar
    16    11    12   ar
    17    12    13    1
    18     4     5   ar
    19     5     6   ar
    20    21    22    1
    21    22    23    1
    22    23    24    1
    23    24    25    1
    24    24    26    1
    25    24    27    1
    26    27    28    1
    27    28    29    1
    28    28    30    1
    29    28    31    1
    30     6     1   ar
    31    31    22    1
    32    12     7   ar
    33    19    15   ar
    34    13    14    1
    35    27    32    1
@<TRIPOS>MOLECULE
*****
 32 35 0 0 0
SMALL
GASTEIGER

@<TRIPOS>ATOM
      1 C         142.1572  140.8164  164.5909 C.ar    1  UNL1        0.1535
      2 C         141.9910  140.0948  163.2865 C.ar    1  UNL1        0.0377
      3 C         141.5996  140.8544  162.0537 C.ar    1  UNL1        0.0239
      4 C         141.3743  142.3356  162.1254 C.ar    1  UNL1        0.1059
      5 N         141.5405  143.0573  163.4298 N.ar    1  UNL1       -0.1467
      6 N         141.9320  142.2977  164.6625 N.ar    1  UNL1       -0.1329
      7 C         140.9829  143.0952  160.8925 C.ar    1  UNL1        0.0532
      8 C         139.9884  142.5092  159.9347 C.ar    1  UNL1        0.0061
      9 C         139.5969  143.2689  158.7018 C.ar    1  UNL1        0.0194
     10 C         140.2000  144.6145  158.4269 C.ar    1  UNL1        0.0859
     11 C         141.1946  145.2005  159.3848 C.ar    1  UNL1        0.0558
     12 C         141.5860  144.4409  160.6176 C.ar    1  UNL1        0.1366
     13 O         142.5806  145.0268  161.5755 O.3     1  UNL1       -0.5054
     14 H         142.9574  145.8674  161.4037 H       1  UNL1        0.2922
     15 N         139.8086  145.3741  157.1941 N.ar    1  UNL1       -0.2280
     16 C         139.5241  144.7808  155.8461 C.ar    1  UNL1        0.1020
     17 C         139.1726  145.9004  154.9118 C.ar    1  UNL1        0.0431
     18 C         139.2400  147.1856  155.6824 C.ar    1  UNL1        0.1221
     19 N         139.6330  146.8603  157.0929 N.ar    1  UNL1       -0.1635
     20 C         143.5243  138.9216  165.7270 C.3     1  UNL1        0.1135
     21 N         142.5487  140.0568  165.8237 N.pl3   1  UNL1       -0.2916
     22 C         141.9645  140.4325  167.1532 C.3     1  UNL1        0.0768
     23 C         142.7848  141.2085  168.1406 C.3     1  UNL1        0.0342
     24 C         142.2007  141.5842  169.4701 C.3     1  UNL1        0.0435
     25 C         142.0911  142.1695  170.8468 C.3     1  UNL1        0.0158
     26 C         143.5672  142.1877  169.6061 C.3     1  UNL1        0.0158
     27 N         140.7961  141.1840  169.8122 N.3     1  UNL1       -0.3015
     28 C         139.9757  140.4080  168.8248 C.3     1  UNL1        0.0435
     29 C         138.8121  139.6740  168.2271 C.3     1  UNL1        0.0158
     30 C         138.9875  140.5288  169.9467 C.3     1  UNL1        0.0158
     31 C         140.5599  140.0323  167.4953 C.3     1  UNL1        0.0342
     32 H         140.2844  142.0442  170.0087 H       1  UNL1        0.1231
@<TRIPOS>BOND
     1    20    21    1
     2    21     1    1
     3     1     2   ar
     4     2     3   ar
     5     3     4   ar
     6     4     7    1
     7     7     8   ar
     8     8     9   ar
     9     9    10   ar
    10    10    15    1
    11    15    16   ar
    12    16    17   ar
    13    17    18   ar
    14    18    19   ar
    15    10    11   ar
    16    11    12   ar
    17    12    13    1
    18     4     5   ar
    19     5     6   ar
    20    21    22    1
    21    22    23    1
    22    23    24    1
    23    24    25    1
    24    24    26    1
    25    24    27    1
    26    27    28    1
    27    28    29    1
    28    28    30    1
    29    28    31    1
    30     6     1   ar
    31    31    22    1
    32    12     7   ar
    33    19    15   ar
    34    13    14    1
    35    27    32    1
@<TRIPOS>MOLECULE
*****
 32 35 0 0 0
SMALL
GASTEIGER

@<TRIPOS>ATOM
      1 C         142.2432  140.8706  164.5440 C.ar    1  UNL1        0.1535
      2 C         142.2853  140.1782  163.2141 C.ar    1  UNL1        0.0377
      3 C         141.8575  140.9073  161.9750 C.ar    1  UNL1        0.0239
      4 C         141.3875  142.3289  162.0659 C.ar    1  UNL1        0.1059
      5 N         141.3454  143.0213  163.3958 N.ar    1  UNL1       -0.1467
      6 N         141.7732  142.2922  164.6349 N.ar    1  UNL1       -0.1329
      7 C         140.9596  143.0580  160.8268 C.ar    1  UNL1        0.0532
      8 C         140.0253  142.4008  159.8547 C.ar    1  UNL1        0.0061
      9 C         139.5974  143.1299  158.6156 C.ar    1  UNL1        0.0194
     10 C         140.1039  144.5163  158.3486 C.ar    1  UNL1        0.0859
     11 C         141.0383  145.1736  159.3207 C.ar    1  UNL1        0.0558
     12 C         141.4662  144.4444  160.5598 C.ar    1  UNL1        0.1366
     13 O         142.4006  145.1017  161.5319 O.3     1  UNL1       -0.5054
     14 H         142.7170  145.9678  161.3652 H       1  UNL1        0.2922
     15 N         139.6761  145.2454  157.1096 N.ar    1  UNL1       -0.2280
     16 C         138.9770  144.6412  155.9280 C.ar    1  UNL1        0.1020
     17 C         138.7411  145.7291  154.9227 C.ar    1  UNL1        0.0431
     18 C         139.2945  147.0058  155.4830 C.ar    1  UNL1        0.1221
     19 N         139.8724  146.7069  156.8345 N.ar    1  UNL1       -0.1635
     20 C         143.6995  139.0531  165.6955 C.3     1  UNL1        0.1135
     21 N         142.6711  140.1415  165.7831 N.pl3   1  UNL1       -0.2916
     22 C         142.0704  140.5008  167.1098 C.3     1  UNL1        0.0768
     23 C         140.6675  140.0820  167.4361 C.3     1  UNL1        0.0342
     24 C         140.0669  140.4413  168.7628 C.3     1  UNL1        0.0435
     25 C         139.0671  140.5426  169.8763 C.3     1  UNL1        0.0158
     26 C         138.9174  139.6984  168.1490 C.3     1  UNL1        0.0158
     27 N         140.8692  141.2194  169.7632 N.3     1  UNL1       -0.3015
     28 C         142.2722  141.6382  169.4370 C.3     1  UNL1        0.0435
     29 C         143.6303  142.2563  169.5899 C.3     1  UNL1        0.0158
     30 C         142.1432  142.2121  170.8168 C.3     1  UNL1        0.0158
     31 C         142.8728  141.2789  168.1103 C.3     1  UNL1        0.0342
     32 H         140.9209  140.6487  170.6070 H       1  UNL1        0.1231
@<TRIPOS>BOND
     1    20    21    1
     2    21     1    1
     3     1     2   ar
     4     2     3   ar
     5     3     4   ar
     6     4     7    1
     7     7     8   ar
     8     8     9   ar
     9     9    10   ar
    10    10    15    1
    11    15    16   ar
    12    16    17   ar
    13    17    18   ar
    14    18    19   ar
    15    10    11   ar
    16    11    12   ar
    17    12    13    1
    18     4     5   ar
    19     5     6   ar
    20    21    22    1
    21    22    23    1
    22    23    24    1
    23    24    25    1
    24    24    26    1
    25    24    27    1
    26    27    28    1
    27    28    29    1
    28    28    30    1
    29    28    31    1
    30     6     1   ar
    31    31    22    1
    32    12     7   ar
    33    19    15   ar
    34    13    14    1
    35    27    32    1
@<TRIPOS>MOLECULE
*****
 32 35 0 0 0
SMALL
GASTEIGER

@<TRIPOS>ATOM
      1 C         141.4738  136.3532  156.1069 C.ar    1  UNL1        0.1535
      2 C         142.4403  137.0283  157.0343 C.ar    1  UNL1        0.0377
      3 C         141.9415  138.0111  158.0518 C.ar    1  UNL1        0.0239
      4 C         140.4761  138.3187  158.1419 C.ar    1  UNL1        0.1059
      5 N         139.5096  137.6436  157.2146 N.ar    1  UNL1       -0.1467
      6 N         140.0084  136.6609  156.1971 N.ar    1  UNL1       -0.1329
      7 C         139.9773  139.3015  159.1595 C.ar    1  UNL1        0.0532
      8 C         140.6694  139.4256  160.4845 C.ar    1  UNL1        0.0061
      9 C         140.1706  140.4085  161.5020 C.ar    1  UNL1        0.0194
     10 C         138.9798  141.2671  161.1945 C.ar    1  UNL1        0.0859
     11 C         138.2877  141.1430  159.8695 C.ar    1  UNL1        0.0558
     12 C         138.7865  140.1602  158.8520 C.ar    1  UNL1        0.1366
     13 O         138.0944  140.0360  157.5269 O.3     1  UNL1       -0.5054
     14 H         137.3505  140.5724  157.3348 H       1  UNL1        0.2922
     15 N         138.4810  142.2499  162.2120 N.ar    1  UNL1       -0.2280
     16 C         138.2376  141.9677  163.6650 C.ar    1  UNL1        0.1020
     17 C         137.7441  143.2308  164.3062 C.ar    1  UNL1        0.0431
     18 C         137.6826  144.2936  163.2494 C.ar    1  UNL1        0.1221
     19 N         138.1380  143.6873  161.9552 N.ar    1  UNL1       -0.1635
     20 C         142.2186  135.8126  153.6773 C.3     1  UNL1        0.1135
     21 N         141.9726  135.3704  155.0893 N.pl3   1  UNL1       -0.2916
     22 C         142.2252  133.9455  155.4839 C.3     1  UNL1        0.0768
     23 C         141.3952  132.8450  154.8923 C.3     1  UNL1        0.0342
     24 C         141.6479  131.4201  155.2868 C.3     1  UNL1        0.0435
     25 C         141.5077  129.9278  155.3461 C.3     1  UNL1        0.0158
     26 C         140.5165  131.2263  154.3212 C.3     1  UNL1        0.0158
     27 N         142.7306  131.0956  156.2730 N.3     1  UNL1       -0.3015
     28 C         143.5606  132.1961  156.8647 C.3     1  UNL1        0.0435
     29 C         144.6042  132.8848  157.6932 C.3     1  UNL1        0.0158
     30 C         144.1757  131.0103  157.5469 C.3     1  UNL1        0.0158
     31 C         143.3079  133.6210  156.4701 C.3     1  UNL1        0.0342
     32 H         143.3757  130.4601  155.8035 H       1  UNL1        0.1231
@<TRIPOS>BOND
     1    20    21    1
     2    21     1    1
     3     1     2   ar
     4     2     3   ar
     5     3     4   ar
     6     4     7    1
     7     7     8   ar
     8     8     9   ar
     9     9    10   ar
    10    10    15    1
    11    15    16   ar
    12    16    17   ar
    13    17    18   ar
    14    18    19   ar
    15    10    11   ar
    16    11    12   ar
    17    12    13    1
    18     4     5   ar
    19     5     6   ar
    20    21    22    1
    21    22    23    1
    22    23    24    1
    23    24    25    1
    24    24    26    1
    25    24    27    1
    26    27    28    1
    27    28    29    1
    28    28    30    1
    29    28    31    1
    30     6     1   ar
    31    31    22    1
    32    12     7   ar
    33    19    15   ar
    34    13    14    1
    35    27    32    1
@<TRIPOS>MOLECULE
*****
 32 35 0 0 0
SMALL
GASTEIGER

@<TRIPOS>ATOM
      1 C         142.6389  138.4839  158.3177 C.ar    1  UNL1        0.1535
      2 C         141.2137  138.5717  158.7771 C.ar    1  UNL1        0.0377
      3 C         140.9058  138.7889  160.2289 C.ar    1  UNL1        0.0239
      4 C         142.0230  138.9183  161.2214 C.ar    1  UNL1        0.1059
      5 N         143.4482  138.8305  160.7620 N.ar    1  UNL1       -0.1467
      6 N         143.7562  138.6134  159.3102 N.ar    1  UNL1       -0.1329
      7 C         141.7150  139.1355  162.6734 C.ar    1  UNL1        0.0532
      8 C         141.7926  140.5145  163.2584 C.ar    1  UNL1        0.0061
      9 C         141.4845  140.7317  164.7103 C.ar    1  UNL1        0.0194
     10 C         141.0990  139.5698  165.5771 C.ar    1  UNL1        0.0859
     11 C         141.0214  138.1908  164.9920 C.ar    1  UNL1        0.0558
     12 C         141.3294  137.9736  163.5402 C.ar    1  UNL1        0.1366
     13 O         141.2519  136.5946  162.9551 O.3     1  UNL1       -0.5054
     14 H         141.0110  135.8688  163.4966 H       1  UNL1        0.2922
     15 N         140.7910  139.7870  167.0290 N.ar    1  UNL1       -0.2280
     16 C         139.4254  139.9656  167.6235 C.ar    1  UNL1        0.1020
     17 C         139.5849  140.1526  169.1032 C.ar    1  UNL1        0.0431
     18 C         141.0491  140.0896  169.4232 C.ar    1  UNL1        0.1221
     19 N         141.7944  139.8636  168.1413 N.ar    1  UNL1       -0.1635
     20 C         143.3558  139.4247  156.0044 C.3     1  UNL1        0.1135
     21 N         142.9469  138.2667  156.8658 N.pl3   1  UNL1       -0.2916
     22 C         142.8460  136.8915  156.2752 C.3     1  UNL1        0.0768
     23 C         142.3964  136.7163  154.8550 C.3     1  UNL1        0.0342
     24 C         142.2955  135.3411  154.2645 C.3     1  UNL1        0.0435
     25 C         142.0431  134.2513  153.2653 C.3     1  UNL1        0.0158
     26 C         141.8592  136.1626  153.0877 C.3     1  UNL1        0.0158
     27 N         142.6442  134.1412  155.0942 N.3     1  UNL1       -0.3015
     28 C         143.0939  134.3164  156.5145 C.3     1  UNL1        0.0435
     29 C         143.5653  133.9725  157.8964 C.3     1  UNL1        0.0158
     30 C         143.1567  132.8218  156.4039 C.3     1  UNL1        0.0158
     31 C         143.1948  135.6915  157.1050 C.3     1  UNL1        0.0342
     32 H         143.3952  133.6535  154.6057 H       1  UNL1        0.1231
@<TRIPOS>BOND
     1    20    21    1
     2    21     1    1
     3     1     2   ar
     4     2     3   ar
     5     3     4   ar
     6     4     7    1
     7     7     8   ar
     8     8     9   ar
     9     9    10   ar
    10    10    15    1
    11    15    16   ar
    12    16    17   ar
    13    17    18   ar
    14    18    19   ar
    15    10    11   ar
    16    11    12   ar
    17    12    13    1
    18     4     5   ar
    19     5     6   ar
    20    21    22    1
    21    22    23    1
    22    23    24    1
    23    24    25    1
    24    24    26    1
    25    24    27    1
    26    27    28    1
    27    28    29    1
    28    28    30    1
    29    28    31    1
    30     6     1   ar
    31    31    22    1
    32    12     7   ar
    33    19    15   ar
    34    13    14    1
    35    27    32    1
@<TRIPOS>MOLECULE
*****
 32 35 0 0 0
SMALL
GASTEIGER

@<TRIPOS>ATOM
      1 C         139.4882  141.0335  164.3131 C.ar    1  UNL1        0.1535
      2 C         140.3214  140.5010  163.1852 C.ar    1  UNL1        0.0377
      3 C         140.4397  141.2788  161.9081 C.ar    1  UNL1        0.0239
      4 C         139.7248  142.5890  161.7589 C.ar    1  UNL1        0.1059
      5 N         138.8916  143.1215  162.8868 N.ar    1  UNL1       -0.1467
      6 N         138.7733  142.3438  164.1639 N.ar    1  UNL1       -0.1329
      7 C         139.8432  143.3668  160.4817 C.ar    1  UNL1        0.0532
      8 C         139.2951  142.8008  159.2054 C.ar    1  UNL1        0.0061
      9 C         139.4134  143.5785  157.9282 C.ar    1  UNL1        0.0194
     10 C         140.0799  144.9223  157.9274 C.ar    1  UNL1        0.0859
     11 C         140.6281  145.4883  159.2038 C.ar    1  UNL1        0.0558
     12 C         140.5097  144.7106  160.4809 C.ar    1  UNL1        0.1366
     13 O         141.0579  145.2766  161.7574 O.3     1  UNL1       -0.5054
     14 H         141.4742  146.1160  161.7569 H       1  UNL1        0.2922
     15 N         140.1983  145.7001  156.6503 N.ar    1  UNL1       -0.2280
     16 C         141.0594  145.3408  155.4758 C.ar    1  UNL1        0.1020
     17 C         140.8697  146.3924  154.4230 C.ar    1  UNL1        0.0431
     18 C         139.8913  147.4015  154.9470 C.ar    1  UNL1        0.1221
     19 N         139.4764  146.9736  156.3235 N.ar    1  UNL1       -0.1635
     20 C         138.4855  139.0458  165.6524 C.3     1  UNL1        0.1135
     21 N         139.3698  140.2558  165.5903 N.pl3   1  UNL1       -0.2916
     22 C         140.1359  140.6880  166.8054 C.3     1  UNL1        0.0768
     23 C         141.4706  141.3550  166.6524 C.3     1  UNL1        0.0342
     24 C         142.2367  141.7872  167.8675 C.3     1  UNL1        0.0435
     25 C         143.3324  142.3715  168.7089 C.3     1  UNL1        0.0158
     26 C         143.1860  142.2249  166.7917 C.3     1  UNL1        0.0158
     27 N         141.6679  141.5525  169.2355 N.3     1  UNL1       -0.3015
     28 C         140.3331  140.8855  169.3884 C.3     1  UNL1        0.0435
     29 C         139.1177  140.2977  170.0422 C.3     1  UNL1        0.0158
     30 C         140.6770  141.1136  170.8305 C.3     1  UNL1        0.0158
     31 C         139.5671  140.4532  168.1734 C.3     1  UNL1        0.0342
     32 H         141.5941  142.4655  169.6843 H       1  UNL1        0.1231
@<TRIPOS>BOND
     1    20    21    1
     2    21     1    1
     3     1     2   ar
     4     2     3   ar
     5     3     4   ar
     6     4     7    1
     7     7     8   ar
     8     8     9   ar
     9     9    10   ar
    10    10    15    1
    11    15    16   ar
    12    16    17   ar
    13    17    18   ar
    14    18    19   ar
    15    10    11   ar
    16    11    12   ar
    17    12    13    1
    18     4     5   ar
    19     5     6   ar
    20    21    22    1
    21    22    23    1
    22    23    24    1
    23    24    25    1
    24    24    26    1
    25    24    27    1
    26    27    28    1
    27    28    29    1
    28    28    30    1
    29    28    31    1
    30     6     1   ar
    31    31    22    1
    32    12     7   ar
    33    19    15   ar
    34    13    14    1
    35    27    32    1
@<TRIPOS>MOLECULE
*****
 32 35 0 0 0
SMALL
GASTEIGER

@<TRIPOS>ATOM
      1 C         139.4494  141.0812  164.4347 C.ar    1  UNL1        0.1535
      2 C         138.5596  142.2573  164.1611 C.ar    1  UNL1        0.0377
      3 C         138.6956  143.0176  162.8753 C.ar    1  UNL1        0.0239
      4 C         139.7215  142.6018  161.8630 C.ar    1  UNL1        0.1059
      5 N         140.6113  141.4257  162.1366 N.ar    1  UNL1       -0.1467
      6 N         140.4753  140.6654  163.4224 N.ar    1  UNL1       -0.1329
      7 C         139.8575  143.3621  160.5771 C.ar    1  UNL1        0.0532
      8 C         139.1833  142.8609  159.3345 C.ar    1  UNL1        0.0061
      9 C         139.3192  143.6212  158.0486 C.ar    1  UNL1        0.0194
     10 C         140.1295  144.8828  158.0054 C.ar    1  UNL1        0.0859
     11 C         140.8037  145.3841  159.2481 C.ar    1  UNL1        0.0558
     12 C         140.6677  144.6237  160.5339 C.ar    1  UNL1        0.1366
     13 O         141.3419  145.1250  161.7766 O.3     1  UNL1       -0.5054
     14 H         141.8480  145.9131  161.7497 H       1  UNL1        0.2922
     15 N         140.2655  145.6432  156.7196 N.ar    1  UNL1       -0.2280
     16 C         141.1259  145.2564  155.5534 C.ar    1  UNL1        0.1020
     17 C         140.9571  146.2980  154.4873 C.ar    1  UNL1        0.0431
     18 C         139.9924  147.3285  154.9947 C.ar    1  UNL1        0.1221
     19 N         139.5650  146.9238  156.3743 N.ar    1  UNL1       -0.1635
     20 C         138.3791  139.1504  165.8046 C.3     1  UNL1        0.1135
     21 N         139.3135  140.3208  165.7206 N.pl3   1  UNL1       -0.2916
     22 C         140.1119  140.7309  166.9224 C.3     1  UNL1        0.0768
     23 C         139.5845  140.4621  168.3006 C.3     1  UNL1        0.0342
     24 C         140.3829  140.8722  169.5024 C.3     1  UNL1        0.0435
     25 C         140.7672  141.0704  170.9387 C.3     1  UNL1        0.0158
     26 C         139.1905  140.2621  170.1776 C.3     1  UNL1        0.0158
     27 N         141.7088  141.5511  169.3260 N.3     1  UNL1       -0.3015
     28 C         142.2362  141.8199  167.9477 C.3     1  UNL1        0.0435
     29 C         143.1513  142.2876  166.8550 C.3     1  UNL1        0.0158
     30 C         143.3524  142.3924  168.7700 C.3     1  UNL1        0.0158
     31 C         141.4378  141.4098  166.7459 C.3     1  UNL1        0.0342
     32 H         142.4019  140.9708  169.7985 H       1  UNL1        0.1231
@<TRIPOS>BOND
     1    20    21    1
     2    21     1    1
     3     1     2   ar
     4     2     3   ar
     5     3     4   ar
     6     4     7    1
     7     7     8   ar
     8     8     9   ar
     9     9    10   ar
    10    10    15    1
    11    15    16   ar
    12    16    17   ar
    13    17    18   ar
    14    18    19   ar
    15    10    11   ar
    16    11    12   ar
    17    12    13    1
    18     4     5   ar
    19     5     6   ar
    20    21    22    1
    21    22    23    1
    22    23    24    1
    23    24    25    1
    24    24    26    1
    25    24    27    1
    26    27    28    1
    27    28    29    1
    28    28    30    1
    29    28    31    1
    30     6     1   ar
    31    31    22    1
    32    12     7   ar
    33    19    15   ar
    34    13    14    1
    35    27    32    1
@<TRIPOS>MOLECULE
*****
 32 35 0 0 0
SMALL
GASTEIGER

@<TRIPOS>ATOM
      1 C         142.9419  138.8812  158.7113 C.ar    1  UNL1        0.1535
      2 C         141.6898  138.3780  159.3661 C.ar    1  UNL1        0.0377
      3 C         141.5292  138.4784  160.8541 C.ar    1  UNL1        0.0239
      4 C         142.6208  139.0820  161.6872 C.ar    1  UNL1        0.1059
      5 N         143.8729  139.5852  161.0323 N.ar    1  UNL1       -0.1467
      6 N         144.0335  139.4848  159.5444 N.ar    1  UNL1       -0.1329
      7 C         142.4602  139.1824  163.1752 C.ar    1  UNL1        0.0532
      8 C         141.0900  139.2864  163.7764 C.ar    1  UNL1        0.0061
      9 C         140.9294  139.3867  165.2644 C.ar    1  UNL1        0.0194
     10 C         142.1391  139.3831  166.1513 C.ar    1  UNL1        0.0859
     11 C         143.5095  139.2791  165.5500 C.ar    1  UNL1        0.0558
     12 C         143.6700  139.1787  164.0621 C.ar    1  UNL1        0.1366
     13 O         145.0404  139.0747  163.4608 O.3     1  UNL1       -0.5054
     14 H         145.7961  139.0724  164.0148 H       1  UNL1        0.2922
     15 N         141.9786  139.4834  167.6392 N.ar    1  UNL1       -0.2280
     16 C         140.7979  140.0614  168.3617 C.ar    1  UNL1        0.1020
     17 C         141.0602  139.9587  169.8350 C.ar    1  UNL1        0.0431
     18 C         142.4030  139.3171  170.0231 C.ar    1  UNL1        0.1221
     19 N         142.9706  139.0234  168.6660 N.ar    1  UNL1       -0.1635
     20 C         143.7558  139.8963  156.4624 C.3     1  UNL1        0.1135
     21 N         143.1025  138.7808  157.2232 N.pl3   1  UNL1       -0.2916
     22 C         142.6096  137.5650  156.4960 C.3     1  UNL1        0.0768
     23 C         143.0003  136.1970  156.9714 C.3     1  UNL1        0.0342
     24 C         142.5075  134.9812  156.2442 C.3     1  UNL1        0.0435
     25 C         142.2959  133.5385  155.8922 C.3     1  UNL1        0.0158
     26 C         143.3175  134.3280  157.3246 C.3     1  UNL1        0.0158
     27 N         141.6240  135.1333  155.0416 N.3     1  UNL1       -0.3015
     28 C         141.2333  136.5013  154.5661 C.3     1  UNL1        0.0435
     29 C         140.5944  137.5767  153.7383 C.3     1  UNL1        0.0158
     30 C         140.5186  135.6589  153.5515 C.3     1  UNL1        0.0158
     31 C         141.7261  137.7171  155.2933 C.3     1  UNL1        0.0342
     32 H         140.7583  134.6346  155.2473 H       1  UNL1        0.1231
@<TRIPOS>BOND
     1    20    21    1
     2    21     1    1
     3     1     2   ar
     4     2     3   ar
     5     3     4   ar
     6     4     7    1
     7     7     8   ar
     8     8     9   ar
     9     9    10   ar
    10    10    15    1
    11    15    16   ar
    12    16    17   ar
    13    17    18   ar
    14    18    19   ar
    15    10    11   ar
    16    11    12   ar
    17    12    13    1
    18     4     5   ar
    19     5     6   ar
    20    21    22    1
    21    22    23    1
    22    23    24    1
    23    24    25    1
    24    24    26    1
    25    24    27    1
    26    27    28    1
    27    28    29    1
    28    28    30    1
    29    28    31    1
    30     6     1   ar
    31    31    22    1
    32    12     7   ar
    33    19    15   ar
    34    13    14    1
    35    27    32    1
