@<TRIPOS>MOLECULE
*****
 29 33 0 0 0
SMALL
GASTEIGER

@<TRIPOS>ATOM
      1 N         142.9035  141.9346  164.9473 N.pl3   1  UNL1       -0.3133
      2 C         142.6233  141.9220  166.4209 C.2     1  UNL1        0.2770
      3 N         141.4538  141.2632  167.0902 N.2     1  UNL1       -0.2204
      4 C         141.5711  141.5001  168.5668 C.3     1  UNL1        0.1537
      5 C         142.8131  142.3053  168.8099 C.3     1  UNL1        0.2350
      6 O         143.4634  142.5660  167.4836 O.2     1  UNL1       -0.4478
      7 C         140.3652  140.7006  168.1710 C.ar    1  UNL1        0.0355
      8 C         140.1160  140.3846  166.7261 C.ar    1  UNL1        0.0007
      9 C         138.9101  139.5851  166.3303 C.ar    1  UNL1        0.0015
     10 C         137.9533  139.1017  167.3795 C.ar    1  UNL1        0.0031
     11 C         138.2025  139.4177  168.8246 C.ar    1  UNL1        0.0366
     12 C         139.4084  140.2171  169.2203 C.ar    1  UNL1        0.1364
     13 O         139.6577  140.5332  170.6653 O.3     1  UNL1       -0.4756
     14 C         140.8636  141.3326  171.0611 C.3     1  UNL1        0.2074
     15 C         141.8203  141.8161  170.0118 C.3     1  UNL1        0.0666
     16 C         143.0689  142.5567  169.6346 C.3     1  UNL1        0.0061
     17 C         142.6604  142.4601  171.0746 C.3     1  UNL1        0.0061
     18 H         142.2896  141.4811  164.3255 H       1  UNL1        0.1466
     19 H         143.7015  142.3964  164.6019 H       1  UNL1        0.1466
     20 C         138.6609  139.2691  164.8853 C.ar    1  UNL1        0.0222
     21 C         138.9140  137.8849  164.3658 C.ar    1  UNL1        0.0991
     22 N         138.6648  137.5689  162.9208 N.ar    1  UNL1       -0.2391
     23 C         138.1625  138.6372  161.9952 C.ar    1  UNL1        0.1358
     24 C         137.9095  140.0214  162.5147 C.ar    1  UNL1        0.1634
     25 C         138.1587  140.3374  163.9598 C.ar    1  UNL1        0.0403
     26 O         137.4072  141.0897  161.5892 O.3     1  UNL1       -0.4220
     27 C         137.9416  142.4871  161.6968 C.3     1  UNL1        0.5087
     28 F         137.4263  143.4072  162.7636 F       1  UNL1       -0.1550
     29 F         138.9913  142.9646  160.7375 F       1  UNL1       -0.1550
@<TRIPOS>BOND
     1     1     2    1
     2     2     3    2
     3     3     4    1
     4     4     5    1
     5     5     6    1
     6     4     7    1
     7     7     8   ar
     8     8     9   ar
     9     9    20    1
    10    20    21   ar
    11    21    22   ar
    12    22    23   ar
    13    23    24   ar
    14    24    26    1
    15    26    27    1
    16    27    28    1
    17    27    29    1
    18    24    25   ar
    19     9    10   ar
    20    10    11   ar
    21    11    12   ar
    22    12    13    1
    23    13    14    1
    24    14    15    1
    25    15    16    1
    26    16    17    1
    27     6     2    1
    28    12     7   ar
    29    17    15    1
    30    15     4    1
    31    25    20   ar
    32     1    18    1
    33     1    19    1
@<TRIPOS>MOLECULE
*****
 29 33 0 0 0
SMALL
GASTEIGER

@<TRIPOS>ATOM
      1 N         138.9655  137.2320  165.1673 N.pl3   1  UNL1       -0.3133
      2 C         138.7604  138.1789  164.0221 C.2     1  UNL1        0.2770
      3 N         138.9316  139.6683  164.0682 N.2     1  UNL1       -0.2204
      4 C         138.6251  140.2125  162.7043 C.3     1  UNL1        0.1537
      5 C         138.2645  139.0593  161.8154 C.3     1  UNL1        0.2350
      6 O         138.3481  137.8025  162.6298 O.2     1  UNL1       -0.4478
      7 C         139.0052  141.2604  163.7081 C.ar    1  UNL1        0.0355
      8 C         139.3393  140.8644  165.1157 C.ar    1  UNL1        0.0007
      9 C         139.7193  141.9124  166.1195 C.ar    1  UNL1        0.0015
     10 C         139.7654  143.3562  165.7155 C.ar    1  UNL1        0.0031
     11 C         139.4313  143.7521  164.3077 C.ar    1  UNL1        0.0366
     12 C         139.0513  142.7042  163.3041 C.ar    1  UNL1        0.1364
     13 O         138.7172  143.1001  161.8963 O.3     1  UNL1       -0.4756
     14 C         138.3371  142.0523  160.8926 C.3     1  UNL1        0.2074
     15 C         138.2911  140.6084  161.2966 C.3     1  UNL1        0.0666
     16 C         138.0451  139.1698  160.9504 C.3     1  UNL1        0.0061
     17 C         137.8788  140.2320  159.9044 C.3     1  UNL1        0.0061
     18 H         139.2378  137.5767  166.0483 H       1  UNL1        0.1466
     19 H         138.8279  136.2658  165.0378 H       1  UNL1        0.1466
     20 C         140.0534  141.5164  167.5272 C.ar    1  UNL1        0.0222
     21 C         139.6745  140.1563  168.0337 C.ar    1  UNL1        0.0991
     22 N         140.0085  139.7604  169.4414 N.ar    1  UNL1       -0.2391
     23 C         140.7215  140.7246  170.3426 C.ar    1  UNL1        0.1358
     24 C         141.1004  142.0846  169.8361 C.ar    1  UNL1        0.1634
     25 C         140.7663  142.4806  168.4283 C.ar    1  UNL1        0.0403
     26 O         141.8133  143.0488  170.7372 O.3     1  UNL1       -0.4220
     27 C         143.3010  143.2110  170.6351 C.3     1  UNL1        0.5087
     28 F         143.9854  144.3292  171.3640 F       1  UNL1       -0.1550
     29 F         144.1043  142.2549  169.8040 F       1  UNL1       -0.1550
@<TRIPOS>BOND
     1     1     2    1
     2     2     3    2
     3     3     4    1
     4     4     5    1
     5     5     6    1
     6     4     7    1
     7     7     8   ar
     8     8     9   ar
     9     9    20    1
    10    20    21   ar
    11    21    22   ar
    12    22    23   ar
    13    23    24   ar
    14    24    26    1
    15    26    27    1
    16    27    28    1
    17    27    29    1
    18    24    25   ar
    19     9    10   ar
    20    10    11   ar
    21    11    12   ar
    22    12    13    1
    23    13    14    1
    24    14    15    1
    25    15    16    1
    26    16    17    1
    27     6     2    1
    28    12     7   ar
    29    17    15    1
    30    15     4    1
    31    25    20   ar
    32     1    18    1
    33     1    19    1
@<TRIPOS>MOLECULE
*****
 29 33 0 0 0
SMALL
GASTEIGER

@<TRIPOS>ATOM
      1 N         137.4030  142.3379  164.4337 N.pl3   1  UNL1       -0.3133
      2 C         138.5698  142.8671  163.6535 C.2     1  UNL1        0.2770
      3 N         139.9947  142.9123  164.1200 N.2     1  UNL1       -0.2204
      4 C         140.8220  143.5172  163.0246 C.3     1  UNL1        0.1537
      5 C         139.9084  143.8459  161.8813 C.3     1  UNL1        0.2350
      6 O         138.5165  143.4442  162.2699 O.2     1  UNL1       -0.4478
      7 C         141.6087  143.1350  164.2433 C.ar    1  UNL1        0.0355
      8 C         140.9144  142.5178  165.4211 C.ar    1  UNL1        0.0007
      9 C         141.7011  142.1356  166.6397 C.ar    1  UNL1        0.0015
     10 C         143.1820  142.3705  166.6806 C.ar    1  UNL1        0.0031
     11 C         143.8762  142.9878  165.5028 C.ar    1  UNL1        0.0366
     12 C         143.0896  143.3700  164.2842 C.ar    1  UNL1        0.1364
     13 O         143.7838  143.9872  163.1064 O.3     1  UNL1       -0.4756
     14 C         142.9972  144.3694  161.8878 C.3     1  UNL1        0.2074
     15 C         141.5163  144.1344  161.8469 C.3     1  UNL1        0.0666
     16 C         140.2071  144.2194  161.1197 C.3     1  UNL1        0.0061
     17 C         141.4629  144.7114  160.4634 C.3     1  UNL1        0.0061
     18 H         137.5394  141.9774  165.3396 H       1  UNL1        0.1466
     19 H         136.5009  142.3510  164.0398 H       1  UNL1        0.1466
     20 C         141.0068  141.5184  167.8175 C.ar    1  UNL1        0.0222
     21 C         141.4903  141.8053  169.2081 C.ar    1  UNL1        0.0991
     22 N         140.7960  141.1882  170.3858 N.ar    1  UNL1       -0.2391
     23 C         139.6182  140.2840  170.1729 C.ar    1  UNL1        0.1358
     24 C         139.1347  139.9970  168.7823 C.ar    1  UNL1        0.1634
     25 C         139.8290  140.6143  167.6045 C.ar    1  UNL1        0.0403
     26 O         137.9569  139.0929  168.5693 O.3     1  UNL1       -0.4220
     27 C         137.6701  138.5442  167.2031 C.3     1  UNL1        0.5087
     28 F         137.4644  137.0703  167.0148 F       1  UNL1       -0.1550
     29 F         137.5888  139.4693  166.0252 F       1  UNL1       -0.1550
@<TRIPOS>BOND
     1     1     2    1
     2     2     3    2
     3     3     4    1
     4     4     5    1
     5     5     6    1
     6     4     7    1
     7     7     8   ar
     8     8     9   ar
     9     9    20    1
    10    20    21   ar
    11    21    22   ar
    12    22    23   ar
    13    23    24   ar
    14    24    26    1
    15    26    27    1
    16    27    28    1
    17    27    29    1
    18    24    25   ar
    19     9    10   ar
    20    10    11   ar
    21    11    12   ar
    22    12    13    1
    23    13    14    1
    24    14    15    1
    25    15    16    1
    26    16    17    1
    27     6     2    1
    28    12     7   ar
    29    17    15    1
    30    15     4    1
    31    25    20   ar
    32     1    18    1
    33     1    19    1
@<TRIPOS>MOLECULE
*****
 29 33 0 0 0
SMALL
GASTEIGER

@<TRIPOS>ATOM
      1 N         143.3340  141.7770  164.7394 N.pl3   1  UNL1       -0.3133
      2 C         142.7503  141.7291  166.1204 C.2     1  UNL1        0.2770
      3 N         141.5017  141.0031  166.5250 N.2     1  UNL1       -0.2204
      4 C         141.2924  141.2242  167.9938 C.3     1  UNL1        0.1537
      5 C         142.4117  142.0868  168.4968 C.3     1  UNL1        0.2350
      6 O         143.3127  142.3989  167.3390 O.2     1  UNL1       -0.4478
      7 C         140.2402  140.3713  167.3492 C.ar    1  UNL1        0.0355
      8 C         140.3182  140.0642  165.8830 C.ar    1  UNL1        0.0007
      9 C         139.2661  139.2112  165.2384 C.ar    1  UNL1        0.0015
     10 C         138.1359  138.6655  166.0599 C.ar    1  UNL1        0.0031
     11 C         138.0579  138.9726  167.5261 C.ar    1  UNL1        0.0366
     12 C         139.1101  139.8255  168.1707 C.ar    1  UNL1        0.1364
     13 O         139.0321  140.1326  169.6369 O.3     1  UNL1       -0.4756
     14 C         140.0843  140.9855  170.2815 C.3     1  UNL1        0.2074
     15 C         141.2144  141.5313  169.4600 C.3     1  UNL1        0.0666
     16 C         142.4743  142.3388  169.3579 C.3     1  UNL1        0.0061
     17 C         141.7768  142.2010  170.6786 C.3     1  UNL1        0.0061
     18 H         142.8894  141.3024  164.0002 H       1  UNL1        0.1466
     19 H         144.1618  142.2831  164.5721 H       1  UNL1        0.1466
     20 C         139.3441  138.9041  163.7722 C.ar    1  UNL1        0.0222
     21 C         138.1673  139.1811  162.8843 C.ar    1  UNL1        0.0991
     22 N         138.2453  138.8740  161.4182 N.ar    1  UNL1       -0.2391
     23 C         139.5001  138.2899  160.8399 C.ar    1  UNL1        0.1358
     24 C         140.6769  138.0129  161.7279 C.ar    1  UNL1        0.1634
     25 C         140.5989  138.3200  163.1941 C.ar    1  UNL1        0.0403
     26 O         141.9317  137.4288  161.1497 O.3     1  UNL1       -0.4220
     27 C         143.2572  138.0722  161.4308 C.3     1  UNL1        0.5087
     28 F         144.5117  137.2503  161.3987 F       1  UNL1       -0.1550
     29 F         143.3283  139.5374  161.7440 F       1  UNL1       -0.1550
@<TRIPOS>BOND
     1     1     2    1
     2     2     3    2
     3     3     4    1
     4     4     5    1
     5     5     6    1
     6     4     7    1
     7     7     8   ar
     8     8     9   ar
     9     9    20    1
    10    20    21   ar
    11    21    22   ar
    12    22    23   ar
    13    23    24   ar
    14    24    26    1
    15    26    27    1
    16    27    28    1
    17    27    29    1
    18    24    25   ar
    19     9    10   ar
    20    10    11   ar
    21    11    12   ar
    22    12    13    1
    23    13    14    1
    24    14    15    1
    25    15    16    1
    26    16    17    1
    27     6     2    1
    28    12     7   ar
    29    17    15    1
    30    15     4    1
    31    25    20   ar
    32     1    18    1
    33     1    19    1
@<TRIPOS>MOLECULE
*****
 29 33 0 0 0
SMALL
GASTEIGER

@<TRIPOS>ATOM
      1 N         138.3185  144.0594  164.2882 N.pl3   1  UNL1       -0.3133
      2 C         138.3869  143.2168  163.0490 C.2     1  UNL1        0.2770
      3 N         138.5595  141.7274  163.0041 N.2     1  UNL1       -0.2204
      4 C         138.5740  141.3058  161.5646 C.3     1  UNL1        0.1537
      5 C         138.4104  142.5346  160.7200 C.3     1  UNL1        0.2350
      6 O         138.2948  143.7156  161.6374 O.2     1  UNL1       -0.4478
      7 C         138.7295  140.1718  162.5342 C.ar    1  UNL1        0.0355
      8 C         138.7335  140.4418  164.0096 C.ar    1  UNL1        0.0007
      9 C         138.8891  139.3078  164.9792 C.ar    1  UNL1        0.0015
     10 C         139.0405  137.9039  164.4732 C.ar    1  UNL1        0.0031
     11 C         139.0365  137.6339  162.9977 C.ar    1  UNL1        0.0366
     12 C         138.8810  138.7679  162.0282 C.ar    1  UNL1        0.1364
     13 O         138.8769  138.4979  160.5526 O.3     1  UNL1       -0.4756
     14 C         138.7214  139.6319  159.5832 C.3     1  UNL1        0.2074
     15 C         138.5699  141.0358  160.0891 C.3     1  UNL1        0.0666
     16 C         138.3927  142.5010  159.8215 C.3     1  UNL1        0.0061
     17 C         138.4778  141.5346  158.6775 C.3     1  UNL1        0.0061
     18 H         138.3891  143.6375  165.1749 H       1  UNL1        0.1466
     19 H         138.2031  145.0344  164.2147 H       1  UNL1        0.1466
     20 C         138.8931  139.5778  166.4547 C.ar    1  UNL1        0.0222
     21 C         137.9005  138.8914  167.3455 C.ar    1  UNL1        0.0991
     22 N         137.9045  139.1614  168.8209 N.ar    1  UNL1       -0.2391
     23 C         138.9012  140.1178  169.4057 C.ar    1  UNL1        0.1358
     24 C         139.8939  140.8043  168.5149 C.ar    1  UNL1        0.1634
     25 C         139.8898  140.5342  167.0393 C.ar    1  UNL1        0.0403
     26 O         140.8906  141.7607  169.0995 O.3     1  UNL1       -0.4220
     27 C         140.4262  142.8816  169.9815 C.3     1  UNL1        0.5087
     28 F         140.2020  144.2474  169.4032 F       1  UNL1       -0.1550
     29 F         140.1861  142.6368  171.4418 F       1  UNL1       -0.1550
@<TRIPOS>BOND
     1     1     2    1
     2     2     3    2
     3     3     4    1
     4     4     5    1
     5     5     6    1
     6     4     7    1
     7     7     8   ar
     8     8     9   ar
     9     9    20    1
    10    20    21   ar
    11    21    22   ar
    12    22    23   ar
    13    23    24   ar
    14    24    26    1
    15    26    27    1
    16    27    28    1
    17    27    29    1
    18    24    25   ar
    19     9    10   ar
    20    10    11   ar
    21    11    12   ar
    22    12    13    1
    23    13    14    1
    24    14    15    1
    25    15    16    1
    26    16    17    1
    27     6     2    1
    28    12     7   ar
    29    17    15    1
    30    15     4    1
    31    25    20   ar
    32     1    18    1
    33     1    19    1
@<TRIPOS>MOLECULE
*****
 29 33 0 0 0
SMALL
GASTEIGER

@<TRIPOS>ATOM
      1 N         137.9095  141.2793  164.8268 N.pl3   1  UNL1       -0.3133
      2 C         138.6370  141.9586  163.7045 C.2     1  UNL1        0.2770
      3 N         140.0534  142.4507  163.7422 N.2     1  UNL1       -0.2204
      4 C         140.3675  143.0612  162.4085 C.3     1  UNL1        0.1537
      5 C         139.1452  142.9464  161.5467 C.3     1  UNL1        0.2350
      6 O         138.0757  142.2649  162.3476 O.2     1  UNL1       -0.4478
      7 C         141.5071  143.1044  163.3829 C.ar    1  UNL1        0.0355
      8 C         141.3397  142.5306  164.7586 C.ar    1  UNL1        0.0007
      9 C         142.4793  142.5738  165.7331 C.ar    1  UNL1        0.0015
     10 C         143.7863  143.1908  165.3318 C.ar    1  UNL1        0.0031
     11 C         143.9537  143.7646  163.9560 C.ar    1  UNL1        0.0366
     12 C         142.8141  143.7214  162.9816 C.ar    1  UNL1        0.1364
     13 O         142.9815  144.2953  161.6058 O.3     1  UNL1       -0.4756
     14 C         141.8419  144.2521  160.6314 C.3     1  UNL1        0.2074
     15 C         140.5349  143.6350  161.0327 C.3     1  UNL1        0.0666
     16 C         139.1224  143.2539  160.7019 C.3     1  UNL1        0.0061
     17 C         139.9736  143.9414  159.6759 C.3     1  UNL1        0.0061
     18 H         138.3655  141.1216  165.6849 H       1  UNL1        0.1466
     19 H         136.9760  140.9911  164.7052 H       1  UNL1        0.1466
     20 C         142.3119  142.0000  167.1088 C.ar    1  UNL1        0.0222
     21 C         143.3609  142.2391  168.1540 C.ar    1  UNL1        0.0991
     22 N         143.1935  141.6653  169.5297 N.ar    1  UNL1       -0.2391
     23 C         141.9770  140.8523  169.8603 C.ar    1  UNL1        0.1358
     24 C         140.9280  140.6131  168.8152 C.ar    1  UNL1        0.1634
     25 C         141.0955  141.1870  167.4394 C.ar    1  UNL1        0.0403
     26 O         139.7116  139.8001  169.1457 O.3     1  UNL1       -0.4220
     27 C         138.6209  140.3912  169.9889 C.3     1  UNL1        0.5087
     28 F         137.4402  139.5540  170.3828 F       1  UNL1       -0.1550
     29 F         138.7108  141.8196  170.4381 F       1  UNL1       -0.1550
@<TRIPOS>BOND
     1     1     2    1
     2     2     3    2
     3     3     4    1
     4     4     5    1
     5     5     6    1
     6     4     7    1
     7     7     8   ar
     8     8     9   ar
     9     9    20    1
    10    20    21   ar
    11    21    22   ar
    12    22    23   ar
    13    23    24   ar
    14    24    26    1
    15    26    27    1
    16    27    28    1
    17    27    29    1
    18    24    25   ar
    19     9    10   ar
    20    10    11   ar
    21    11    12   ar
    22    12    13    1
    23    13    14    1
    24    14    15    1
    25    15    16    1
    26    16    17    1
    27     6     2    1
    28    12     7   ar
    29    17    15    1
    30    15     4    1
    31    25    20   ar
    32     1    18    1
    33     1    19    1
@<TRIPOS>MOLECULE
*****
 29 33 0 0 0
SMALL
GASTEIGER

@<TRIPOS>ATOM
      1 N         138.2282  139.0183  166.1150 N.pl3   1  UNL1       -0.3133
      2 C         139.0811  139.6641  167.1666 C.2     1  UNL1        0.2770
      3 N         140.3172  140.4778  166.9220 N.2     1  UNL1       -0.2204
      4 C         140.8475  140.9262  168.2516 C.3     1  UNL1        0.1537
      5 C         139.9391  140.3895  169.3178 C.3     1  UNL1        0.2350
      6 O         138.8475  139.6096  168.6473 O.2     1  UNL1       -0.4478
      7 C         141.6618  141.3924  167.0812 C.ar    1  UNL1        0.0355
      8 C         141.2522  141.0207  165.6869 C.ar    1  UNL1        0.0007
      9 C         142.0664  141.4869  164.5166 C.ar    1  UNL1        0.0015
     10 C         143.2903  142.3247  164.7405 C.ar    1  UNL1        0.0031
     11 C         143.6999  142.6964  166.1349 C.ar    1  UNL1        0.0366
     12 C         142.8856  142.2302  167.3052 C.ar    1  UNL1        0.1364
     13 O         143.2952  142.6019  168.6996 O.3     1  UNL1       -0.4756
     14 C         142.4810  142.1357  169.8698 C.3     1  UNL1        0.2074
     15 C         141.2571  141.2978  169.6459 C.3     1  UNL1        0.0666
     16 C         140.0805  140.5450  170.1922 C.3     1  UNL1        0.0061
     17 C         141.0235  141.2433  171.1266 C.3     1  UNL1        0.0061
     18 H         138.4647  139.1114  165.1639 H       1  UNL1        0.1466
     19 H         137.4321  138.5014  166.3760 H       1  UNL1        0.1466
     20 C         141.6568  141.1152  163.1223 C.ar    1  UNL1        0.0222
     21 C         142.0373  141.9956  161.9690 C.ar    1  UNL1        0.0991
     22 N         141.6277  141.6239  160.5747 N.ar    1  UNL1       -0.2391
     23 C         140.8376  140.3718  160.3337 C.ar    1  UNL1        0.1358
     24 C         140.4571  139.4914  161.4870 C.ar    1  UNL1        0.1634
     25 C         140.8668  139.8631  162.8814 C.ar    1  UNL1        0.0403
     26 O         139.6671  138.2393  161.2461 O.3     1  UNL1       -0.4220
     27 C         138.4467  137.9525  162.0697 C.3     1  UNL1        0.5087
     28 F         137.0984  138.4096  161.5971 F       1  UNL1       -0.1550
     29 F         138.5745  137.2085  163.3659 F       1  UNL1       -0.1550
@<TRIPOS>BOND
     1     1     2    1
     2     2     3    2
     3     3     4    1
     4     4     5    1
     5     5     6    1
     6     4     7    1
     7     7     8   ar
     8     8     9   ar
     9     9    20    1
    10    20    21   ar
    11    21    22   ar
    12    22    23   ar
    13    23    24   ar
    14    24    26    1
    15    26    27    1
    16    27    28    1
    17    27    29    1
    18    24    25   ar
    19     9    10   ar
    20    10    11   ar
    21    11    12   ar
    22    12    13    1
    23    13    14    1
    24    14    15    1
    25    15    16    1
    26    16    17    1
    27     6     2    1
    28    12     7   ar
    29    17    15    1
    30    15     4    1
    31    25    20   ar
    32     1    18    1
    33     1    19    1
@<TRIPOS>MOLECULE
*****
 29 33 0 0 0
SMALL
GASTEIGER

@<TRIPOS>ATOM
      1 N         138.8545  144.9044  165.5719 N.pl3   1  UNL1       -0.3133
      2 C         139.5883  144.7742  164.2701 C.2     1  UNL1        0.2770
      3 N         140.8125  143.9421  164.0275 N.2     1  UNL1       -0.2204
      4 C         141.2075  144.1071  162.5898 C.3     1  UNL1        0.1537
      5 C         140.2274  145.0411  161.9440 C.3     1  UNL1        0.2350
      6 O         139.2268  145.4534  162.9824 O.2     1  UNL1       -0.4478
      7 C         142.1055  143.1917  163.3682 C.ar    1  UNL1        0.0355
      8 C         141.8338  142.9307  164.8200 C.ar    1  UNL1        0.0007
      9 C         142.7318  142.0153  165.5984 C.ar    1  UNL1        0.0015
     10 C         143.9015  141.3611  164.9248 C.ar    1  UNL1        0.0031
     11 C         144.1732  141.6221  163.4729 C.ar    1  UNL1        0.0366
     12 C         143.2752  142.5375  162.6946 C.ar    1  UNL1        0.1364
     13 O         143.5470  142.7985  161.2426 O.3     1  UNL1       -0.4756
     14 C         142.6490  143.7138  160.4643 C.3     1  UNL1        0.2074
     15 C         141.4793  144.3681  161.1379 C.3     1  UNL1        0.0666
     16 C         140.2855  145.2743  161.0774 C.3     1  UNL1        0.0061
     17 C         141.1177  145.0473  159.8503 C.3     1  UNL1        0.0061
     18 H         139.1707  144.4162  166.3662 H       1  UNL1        0.1466
     19 H         138.0566  145.4780  165.6320 H       1  UNL1        0.1466
     20 C         142.4600  141.7543  167.0503 C.ar    1  UNL1        0.0222
     21 C         143.3499  142.3524  168.0992 C.ar    1  UNL1        0.0991
     22 N         143.0782  142.0914  169.5511 N.ar    1  UNL1       -0.2391
     23 C         141.9165  141.2322  169.9541 C.ar    1  UNL1        0.1358
     24 C         141.0266  140.6340  168.9051 C.ar    1  UNL1        0.1634
     25 C         141.2984  140.8951  167.4532 C.ar    1  UNL1        0.0403
     26 O         139.8650  139.7748  169.3080 O.3     1  UNL1       -0.4220
     27 C         138.6858  140.3864  170.0047 C.3     1  UNL1        0.5087
     28 F         138.7349  141.8198  170.4442 F       1  UNL1       -0.1550
     29 F         137.4575  139.5648  170.2619 F       1  UNL1       -0.1550
@<TRIPOS>BOND
     1     1     2    1
     2     2     3    2
     3     3     4    1
     4     4     5    1
     5     5     6    1
     6     4     7    1
     7     7     8   ar
     8     8     9   ar
     9     9    20    1
    10    20    21   ar
    11    21    22   ar
    12    22    23   ar
    13    23    24   ar
    14    24    26    1
    15    26    27    1
    16    27    28    1
    17    27    29    1
    18    24    25   ar
    19     9    10   ar
    20    10    11   ar
    21    11    12   ar
    22    12    13    1
    23    13    14    1
    24    14    15    1
    25    15    16    1
    26    16    17    1
    27     6     2    1
    28    12     7   ar
    29    17    15    1
    30    15     4    1
    31    25    20   ar
    32     1    18    1
    33     1    19    1
@<TRIPOS>MOLECULE
*****
 29 33 0 0 0
SMALL
GASTEIGER

@<TRIPOS>ATOM
      1 N         138.6130  137.9505  165.5651 N.pl3   1  UNL1       -0.3133
      2 C         139.1231  138.9176  166.5921 C.2     1  UNL1        0.2770
      3 N         140.3273  139.8005  166.4503 N.2     1  UNL1       -0.2204
      4 C         140.4669  140.6001  167.7118 C.3     1  UNL1        0.1537
      5 C         139.3490  140.2111  168.6332 C.3     1  UNL1        0.2350
      6 O         138.5185  139.1713  167.9412 O.2     1  UNL1       -0.4478
      7 C         141.5254  140.8858  166.6881 C.ar    1  UNL1        0.0355
      8 C         141.5141  140.1606  165.3751 C.ar    1  UNL1        0.0007
      9 C         142.5726  140.4463  164.3514 C.ar    1  UNL1        0.0015
     10 C         143.6424  141.4572  164.6406 C.ar    1  UNL1        0.0031
     11 C         143.6536  142.1824  165.9537 C.ar    1  UNL1        0.0366
     12 C         142.5951  141.8967  166.9774 C.ar    1  UNL1        0.1364
     13 O         142.6063  142.6219  168.2904 O.3     1  UNL1       -0.4756
     14 C         141.5479  142.3362  169.3141 C.3     1  UNL1        0.2074
     15 C         140.4781  141.3253  169.0248 C.3     1  UNL1        0.0666
     16 C         139.2495  140.5767  169.4488 C.3     1  UNL1        0.0061
     17 C         139.8735  141.5790  170.3739 C.3     1  UNL1        0.0061
     18 H         139.0811  137.8542  164.7043 H       1  UNL1        0.1466
     19 H         137.8102  137.4121  165.7518 H       1  UNL1        0.1466
     20 C         142.5614  139.7211  163.0384 C.ar    1  UNL1        0.0222
     21 C         143.8204  139.6135  162.2301 C.ar    1  UNL1        0.0991
     22 N         143.8092  138.8883  160.9172 N.ar    1  UNL1       -0.2391
     23 C         142.5388  138.2706  160.4124 C.ar    1  UNL1        0.1358
     24 C         141.2798  138.3781  161.2207 C.ar    1  UNL1        0.1634
     25 C         141.2911  139.1034  162.5337 C.ar    1  UNL1        0.0403
     26 O         140.0095  137.7604  160.7160 O.3     1  UNL1       -0.4220
     27 C         138.6863  138.2270  161.2465 C.3     1  UNL1        0.5087
     28 F         138.0788  137.5556  162.4424 F       1  UNL1       -0.1550
     29 F         137.9706  139.3649  160.5810 F       1  UNL1       -0.1550
@<TRIPOS>BOND
     1     1     2    1
     2     2     3    2
     3     3     4    1
     4     4     5    1
     5     5     6    1
     6     4     7    1
     7     7     8   ar
     8     8     9   ar
     9     9    20    1
    10    20    21   ar
    11    21    22   ar
    12    22    23   ar
    13    23    24   ar
    14    24    26    1
    15    26    27    1
    16    27    28    1
    17    27    29    1
    18    24    25   ar
    19     9    10   ar
    20    10    11   ar
    21    11    12   ar
    22    12    13    1
    23    13    14    1
    24    14    15    1
    25    15    16    1
    26    16    17    1
    27     6     2    1
    28    12     7   ar
    29    17    15    1
    30    15     4    1
    31    25    20   ar
    32     1    18    1
    33     1    19    1
