@<TRIPOS>MOLECULE
*****
 42 45 0 0 0
SMALL
GASTEIGER

@<TRIPOS>ATOM
      1 C         138.2464  139.7322  160.1089 C.3     1  UNL1        0.1502
      2 C         138.0130  140.1268  161.5371 C.3     1  UNL1        0.1037
      3 N         139.1571  139.6051  162.3551 N.3     1  UNL1       -0.2704
      4 C         140.0975  138.8881  161.4324 C.3     1  UNL1        0.0944
      5 C         139.5347  138.9666  160.0442 C.3     1  UNL1        0.1161
      6 C         139.3302  139.7712  163.8358 C.3     1  UNL1        0.0578
      7 C         138.4843  138.9741  164.7840 C.3     1  UNL1        0.0187
      8 C         138.6575  139.1403  166.2646 C.3     1  UNL1        0.0325
      9 C         139.6766  140.1036  166.7971 C.3     1  UNL1        0.1070
     10 O         139.1171  139.5776  168.0856 O.3     1  UNL1       -0.3827
     11 C         140.5225  140.9007  165.8489 C.3     1  UNL1        0.0325
     12 C         140.3493  140.7345  164.3683 C.3     1  UNL1        0.0187
     13 H         138.4258  138.9244  167.8951 H       1  UNL1        0.2107
     14 C         140.5013  140.8842  167.7771 C.ar    1  UNL1        0.0017
     15 C         139.9930  142.1896  168.3133 C.ar    1  UNL1       -0.0024
     16 C         140.8179  142.9701  169.2933 C.ar    1  UNL1       -0.0045
     17 C         142.1510  142.4451  169.7372 C.ar    1  UNL1       -0.0219
     18 C         142.9758  143.2257  170.7173 C.3     1  UNL1        0.0310
     19 C         142.6594  141.1397  169.2011 C.ar    1  UNL1       -0.0045
     20 C         141.8346  140.3592  168.2211 C.ar    1  UNL1       -0.0024
     21 N         140.1519  138.3822  158.8082 N.am    1  UNL1       -0.3009
     22 C         141.2277  139.1325  158.0804 C.2     1  UNL1        0.2426
     23 O         141.6864  140.4671  158.5886 O.2     1  UNL1       -0.2733
     24 H         139.8508  137.5063  158.4746 H       1  UNL1        0.1496
     25 C         141.8449  138.5481  156.8444 C.3     1  UNL1        0.1759
     26 N         142.3621  137.1402  156.8582 N.am    1  UNL1       -0.2931
     27 C         141.6532  136.0732  156.0779 C.2     1  UNL1        0.2462
     28 O         140.4271  136.4140  155.2838 O.2     1  UNL1       -0.2701
     29 H         143.1668  136.9164  157.3793 H       1  UNL1        0.1502
     30 C         142.1703  134.6652  156.0916 C.ar    1  UNL1        0.0533
     31 C         141.4601  133.5978  155.3129 C.ar    1  UNL1        0.0045
     32 C         141.9771  132.1897  155.3265 C.ar    1  UNL1        0.0001
     33 C         143.2045  131.8491  156.1188 C.ar    1  UNL1        0.0039
     34 C         143.9147  132.9165  156.8974 C.ar    1  UNL1        0.0716
     35 C         143.3976  134.3245  156.8838 C.ar    1  UNL1        0.0084
     36 C         145.1420  132.5759  157.6896 C.3     1  UNL1        0.4186
     37 F         146.3693  132.2352  158.4819 F       1  UNL1       -0.1659
     38 F         144.6977  133.5071  158.7784 F       1  UNL1       -0.1659
     39 F         145.5863  131.6446  156.6009 F       1  UNL1       -0.1659
     40 O         137.3490  140.0478  158.9491 O.3     1  UNL1       -0.3531
     41 C         138.1694  140.5038  156.5265 C.3     1  UNL1        0.0346
     42 C         137.8019  141.0089  157.8902 C.3     1  UNL1        0.1423
@<TRIPOS>BOND
     1    41    42    1
     2    42    40    1
     3     1    40    1
     4     1     2    1
     5     2     3    1
     6     6     3    1
     7     6     7    1
     8     7     8    1
     9     8     9    1
    10     9    10    1
    11     9    14    1
    12    14    15   ar
    13    15    16   ar
    14    16    17   ar
    15    17    18    1
    16    17    19   ar
    17    19    20   ar
    18     9    11    1
    19    11    12    1
    20     3     4    1
    21     4     5    1
    22     5    21    1
    23    21    22   am
    24    22    23    2
    25    22    25    1
    26    25    26    1
    27    26    27   am
    28    27    28    2
    29    27    30    1
    30    30    31   ar
    31    31    32   ar
    32    32    33   ar
    33    33    34   ar
    34    34    36    1
    35    36    37    1
    36    36    38    1
    37    36    39    1
    38    34    35   ar
    39     5     1    1
    40    35    30   ar
    41    12     6    1
    42    20    14   ar
    43    10    13    1
    44    21    24    1
    45    26    29    1
@<TRIPOS>MOLECULE
*****
 42 45 0 0 0
SMALL
GASTEIGER

@<TRIPOS>ATOM
      1 C         140.3412  142.5018  159.4871 C.3     1  UNL1        0.1502
      2 C         140.7576  142.1025  160.8718 C.3     1  UNL1        0.1037
      3 N         139.5532  141.5539  161.5779 N.3     1  UNL1       -0.2704
      4 C         138.3925  141.6141  160.6297 C.3     1  UNL1        0.0944
      5 C         138.8795  142.1999  159.3375 C.3     1  UNL1        0.1161
      6 C         139.5161  141.0360  162.9852 C.3     1  UNL1        0.0578
      7 C         138.2945  140.3284  163.4920 C.3     1  UNL1        0.0187
      8 C         138.2575  139.8105  164.8993 C.3     1  UNL1        0.0325
      9 C         139.4420  140.0003  165.7997 C.3     1  UNL1        0.1070
     10 O         138.5207  139.2705  166.7317 O.3     1  UNL1       -0.3827
     11 C         140.6637  140.7079  165.2929 C.3     1  UNL1        0.0325
     12 C         140.7007  141.2257  163.8857 C.3     1  UNL1        0.0187
     13 H         137.6878  139.0742  166.2749 H       1  UNL1        0.2107
     14 C         140.3066  139.9365  167.0239 C.ar    1  UNL1        0.0017
     15 C         139.7218  140.2389  168.3717 C.ar    1  UNL1       -0.0024
     16 C         140.5865  140.1751  169.5958 C.ar    1  UNL1       -0.0045
     17 C         142.0358  139.8090  169.4720 C.ar    1  UNL1       -0.0219
     18 C         142.9004  139.7453  170.6962 C.3     1  UNL1        0.0310
     19 C         142.6205  139.5067  168.1242 C.ar    1  UNL1       -0.0045
     20 C         141.7560  139.5705  166.9001 C.ar    1  UNL1       -0.0024
     21 N         138.0504  142.4415  158.1111 N.am    1  UNL1       -0.3009
     22 C         137.6464  141.2892  157.2399 C.2     1  UNL1        0.2426
     23 O         138.0716  139.8953  157.5952 O.2     1  UNL1       -0.2733
     24 H         137.7713  143.3564  157.8779 H       1  UNL1        0.1496
     25 C         136.8173  141.5308  156.0134 C.3     1  UNL1        0.1759
     26 N         135.3218  141.5822  156.1173 N.am    1  UNL1       -0.2931
     27 C         134.5080  140.3532  155.8395 C.2     1  UNL1        0.2462
     28 O         135.1897  139.0728  155.4578 O.2     1  UNL1       -0.2701
     29 H         134.8743  142.4226  156.3678 H       1  UNL1        0.1502
     30 C         133.0125  140.4045  155.9433 C.ar    1  UNL1        0.0533
     31 C         132.2538  141.5247  155.2956 C.ar    1  UNL1        0.0045
     32 C         130.7582  141.5761  155.3993 C.ar    1  UNL1        0.0001
     33 C         130.0214  140.5073  156.1509 C.ar    1  UNL1        0.0039
     34 C         130.7802  139.3872  156.7986 C.ar    1  UNL1        0.0716
     35 C         132.2757  139.3358  156.6948 C.ar    1  UNL1        0.0084
     36 C         130.0434  138.3184  157.5501 C.3     1  UNL1        0.4186
     37 F         129.3065  137.2496  158.3016 F       1  UNL1       -0.1659
     38 F         130.3456  137.3396  156.4544 F       1  UNL1       -0.1659
     39 F         129.7412  139.2972  158.6459 F       1  UNL1       -0.1659
     40 O         141.2304  143.0981  158.4366 O.3     1  UNL1       -0.3531
     41 C         140.3930  145.5175  158.8785 C.3     1  UNL1        0.0346
     42 C         141.4630  144.5796  158.4036 C.3     1  UNL1        0.1423
@<TRIPOS>BOND
     1    41    42    1
     2    42    40    1
     3     1    40    1
     4     1     2    1
     5     2     3    1
     6     6     3    1
     7     6     7    1
     8     7     8    1
     9     8     9    1
    10     9    10    1
    11     9    14    1
    12    14    15   ar
    13    15    16   ar
    14    16    17   ar
    15    17    18    1
    16    17    19   ar
    17    19    20   ar
    18     9    11    1
    19    11    12    1
    20     3     4    1
    21     4     5    1
    22     5    21    1
    23    21    22   am
    24    22    23    2
    25    22    25    1
    26    25    26    1
    27    26    27   am
    28    27    28    2
    29    27    30    1
    30    30    31   ar
    31    31    32   ar
    32    32    33   ar
    33    33    34   ar
    34    34    36    1
    35    36    37    1
    36    36    38    1
    37    36    39    1
    38    34    35   ar
    39     5     1    1
    40    35    30   ar
    41    12     6    1
    42    20    14   ar
    43    10    13    1
    44    21    24    1
    45    26    29    1
@<TRIPOS>MOLECULE
*****
 42 45 0 0 0
SMALL
GASTEIGER

@<TRIPOS>ATOM
      1 C         142.4059  143.1937  160.1451 C.3     1  UNL1        0.1502
      2 C         142.8826  143.1629  158.7232 C.3     1  UNL1        0.1037
      3 N         144.2891  142.6415  158.7170 N.3     1  UNL1       -0.2704
      4 C         144.6817  142.3502  160.1351 C.3     1  UNL1        0.0944
      5 C         143.5179  142.6914  161.0177 C.3     1  UNL1        0.1161
      6 C         145.1515  142.4459  157.5054 C.3     1  UNL1        0.0578
      7 C         144.5767  141.8220  156.2684 C.3     1  UNL1        0.0187
      8 C         145.4391  141.6264  155.0569 C.3     1  UNL1        0.0325
      9 C         146.8764  142.0548  155.0823 C.3     1  UNL1        0.1070
     10 O         146.7903  141.5144  153.6857 O.3     1  UNL1       -0.3827
     11 C         147.4513  142.6787  156.3193 C.3     1  UNL1        0.0325
     12 C         146.5889  142.8743  157.5308 C.3     1  UNL1        0.0187
     13 H         145.8912  141.1908  153.5190 H       1  UNL1        0.2107
     14 C         148.2838  142.2954  154.6226 C.ar    1  UNL1        0.0017
     15 C         149.4269  141.6210  155.3215 C.ar    1  UNL1       -0.0024
     16 C         150.8343  141.8617  154.8617 C.ar    1  UNL1       -0.0045
     17 C         151.0985  142.7769  153.7031 C.ar    1  UNL1       -0.0219
     18 C         152.5060  143.0176  153.2434 C.3     1  UNL1        0.0310
     19 C         149.9555  143.4514  153.0042 C.ar    1  UNL1       -0.0045
     20 C         148.5482  143.2107  153.4639 C.ar    1  UNL1       -0.0024
     21 N         143.4737  142.5544  162.5108 N.am    1  UNL1       -0.3009
     22 C         143.7358  143.7474  163.3815 C.2     1  UNL1        0.2426
     23 O         144.0421  145.0774  162.7591 O.2     1  UNL1       -0.2733
     24 H         143.2727  141.6815  162.9193 H       1  UNL1        0.1496
     25 C         143.6916  143.6104  164.8746 C.3     1  UNL1        0.1759
     26 N         142.8383  142.5504  165.5056 N.am    1  UNL1       -0.2931
     27 C         141.3452  142.6932  165.5091 C.2     1  UNL1        0.2462
     28 O         140.7053  143.8961  164.8817 O.2     1  UNL1       -0.2701
     29 H         143.2583  141.7609  165.9174 H       1  UNL1        0.1502
     30 C         140.4918  141.6332  166.1401 C.ar    1  UNL1        0.0533
     31 C         139.5445  140.8326  165.2966 C.ar    1  UNL1        0.0045
     32 C         138.6910  139.7725  165.9274 C.ar    1  UNL1        0.0001
     33 C         138.7849  139.5131  167.4019 C.ar    1  UNL1        0.0039
     34 C         139.7322  140.3138  168.2453 C.ar    1  UNL1        0.0716
     35 C         140.5857  141.3738  167.6145 C.ar    1  UNL1        0.0084
     36 C         139.8261  140.0545  169.7198 C.3     1  UNL1        0.4186
     37 F         139.9200  139.7951  171.1942 F       1  UNL1       -0.1659
     38 F         141.3228  140.1025  169.6329 F       1  UNL1       -0.1659
     39 F         138.3294  140.0064  169.8066 F       1  UNL1       -0.1659
     40 O         141.0547  143.6472  160.6124 O.3     1  UNL1       -0.3531
     41 C         140.3149  145.7816  161.8958 C.3     1  UNL1        0.0346
     42 C         140.7137  145.1079  160.6163 C.3     1  UNL1        0.1423
@<TRIPOS>BOND
     1    41    42    1
     2    42    40    1
     3     1    40    1
     4     1     2    1
     5     2     3    1
     6     6     3    1
     7     6     7    1
     8     7     8    1
     9     8     9    1
    10     9    10    1
    11     9    14    1
    12    14    15   ar
    13    15    16   ar
    14    16    17   ar
    15    17    18    1
    16    17    19   ar
    17    19    20   ar
    18     9    11    1
    19    11    12    1
    20     3     4    1
    21     4     5    1
    22     5    21    1
    23    21    22   am
    24    22    23    2
    25    22    25    1
    26    25    26    1
    27    26    27   am
    28    27    28    2
    29    27    30    1
    30    30    31   ar
    31    31    32   ar
    32    32    33   ar
    33    33    34   ar
    34    34    36    1
    35    36    37    1
    36    36    38    1
    37    36    39    1
    38    34    35   ar
    39     5     1    1
    40    35    30   ar
    41    12     6    1
    42    20    14   ar
    43    10    13    1
    44    21    24    1
    45    26    29    1
@<TRIPOS>MOLECULE
*****
 42 45 0 0 0
SMALL
GASTEIGER

@<TRIPOS>ATOM
      1 C         144.1436  141.4511  159.4287 C.3     1  UNL1        0.1502
      2 C         144.0405  141.6098  160.9167 C.3     1  UNL1        0.1037
      3 N         143.6046  140.2958  161.4940 N.3     1  UNL1       -0.2704
      4 C         143.4383  139.3249  160.3628 C.3     1  UNL1        0.0944
      5 C         143.7714  140.0388  159.0864 C.3     1  UNL1        0.1161
      6 C         143.3753  140.0039  162.9474 C.3     1  UNL1        0.0578
      7 C         144.4050  139.2460  163.7317 C.3     1  UNL1        0.0187
      8 C         144.1756  138.9541  165.1851 C.3     1  UNL1        0.0325
      9 C         142.9166  139.4203  165.8541 C.3     1  UNL1        0.1070
     10 O         143.5903  138.7424  167.0102 O.3     1  UNL1       -0.3827
     11 C         141.8869  140.1782  165.0697 C.3     1  UNL1        0.0325
     12 C         142.1163  140.4701  163.6164 C.3     1  UNL1        0.0187
     13 H         144.4426  138.3806  166.7209 H       1  UNL1        0.2107
     14 C         141.8916  139.6510  166.9246 C.ar    1  UNL1        0.0017
     15 C         142.3211  139.8060  168.3534 C.ar    1  UNL1       -0.0024
     16 C         141.2960  140.0367  169.4239 C.ar    1  UNL1       -0.0045
     17 C         139.8414  140.1123  169.0656 C.ar    1  UNL1       -0.0219
     18 C         138.8163  140.3430  170.1362 C.3     1  UNL1        0.0310
     19 C         139.4119  139.9572  167.6368 C.ar    1  UNL1       -0.0045
     20 C         140.4370  139.7266  166.5664 C.ar    1  UNL1       -0.0024
     21 N         143.7382  139.4449  157.7094 N.am    1  UNL1       -0.3009
     22 C         142.4798  139.5082  156.8954 C.2     1  UNL1        0.2426
     23 O         141.2547  140.1654  157.4585 O.2     1  UNL1       -0.2733
     24 H         144.5423  139.0135  157.3398 H       1  UNL1        0.1496
     25 C         142.4466  138.9142  155.5184 C.3     1  UNL1        0.1759
     26 N         142.2736  137.4345  155.3438 N.am    1  UNL1       -0.2931
     27 C         143.4643  136.5258  155.4223 C.2     1  UNL1        0.2462
     28 O         144.8281  137.0968  155.6753 O.2     1  UNL1       -0.2701
     29 H         141.3785  137.0598  155.1778 H       1  UNL1        0.1502
     30 C         143.2915  135.0461  155.2477 C.ar    1  UNL1        0.0533
     31 C         142.5816  134.5114  154.0393 C.ar    1  UNL1        0.0045
     32 C         142.4086  133.0316  153.8647 C.ar    1  UNL1        0.0001
     33 C         142.9456  132.0866  154.8984 C.ar    1  UNL1        0.0039
     34 C         143.6555  132.6214  156.1067 C.ar    1  UNL1        0.0716
     35 C         143.8284  134.1011  156.2814 C.ar    1  UNL1        0.0084
     36 C         144.1924  131.6763  157.1405 C.3     1  UNL1        0.4186
     37 F         144.7294  130.7313  158.1742 F       1  UNL1       -0.1659
     38 F         142.8378  131.0445  157.2665 F       1  UNL1       -0.1659
     39 F         145.5470  132.3081  157.0145 F       1  UNL1       -0.1659
     40 O         144.5479  142.5173  158.4541 O.3     1  UNL1       -0.3531
     41 C         146.9430  142.9312  157.5365 C.3     1  UNL1        0.0346
     42 C         145.6159  142.2390  157.4383 C.3     1  UNL1        0.1423
@<TRIPOS>BOND
     1    41    42    1
     2    42    40    1
     3     1    40    1
     4     1     2    1
     5     2     3    1
     6     6     3    1
     7     6     7    1
     8     7     8    1
     9     8     9    1
    10     9    10    1
    11     9    14    1
    12    14    15   ar
    13    15    16   ar
    14    16    17   ar
    15    17    18    1
    16    17    19   ar
    17    19    20   ar
    18     9    11    1
    19    11    12    1
    20     3     4    1
    21     4     5    1
    22     5    21    1
    23    21    22   am
    24    22    23    2
    25    22    25    1
    26    25    26    1
    27    26    27   am
    28    27    28    2
    29    27    30    1
    30    30    31   ar
    31    31    32   ar
    32    32    33   ar
    33    33    34   ar
    34    34    36    1
    35    36    37    1
    36    36    38    1
    37    36    39    1
    38    34    35   ar
    39     5     1    1
    40    35    30   ar
    41    12     6    1
    42    20    14   ar
    43    10    13    1
    44    21    24    1
    45    26    29    1
@<TRIPOS>MOLECULE
*****
 42 45 0 0 0
SMALL
GASTEIGER

@<TRIPOS>ATOM
      1 C         139.6823  138.8427  159.1851 C.3     1  UNL1        0.1502
      2 C         140.1849  138.6837  160.5893 C.3     1  UNL1        0.1037
      3 N         139.3309  139.5302  161.4861 N.3     1  UNL1       -0.2704
      4 C         138.3005  140.2125  160.6360 C.3     1  UNL1        0.0944
      5 C         138.5176  139.7876  159.2139 C.3     1  UNL1        0.1161
      6 C         139.4811  139.6700  162.9720 C.3     1  UNL1        0.0578
      7 C         138.4594  139.0660  163.8892 C.3     1  UNL1        0.0187
      8 C         138.6096  139.2057  165.3751 C.3     1  UNL1        0.0325
      9 C         139.7815  139.9495  165.9438 C.3     1  UNL1        0.1070
     10 O         139.0824  139.5563  167.2113 O.3     1  UNL1       -0.3827
     11 C         140.8032  140.5535  165.0266 C.3     1  UNL1        0.0325
     12 C         140.6530  140.4137  163.5408 C.3     1  UNL1        0.0187
     13 H         138.2814  139.0534  166.9962 H       1  UNL1        0.2107
     14 C         140.7106  140.5566  166.9528 C.ar    1  UNL1        0.0017
     15 C         141.8506  139.7516  167.5026 C.ar    1  UNL1       -0.0024
     16 C         142.7796  140.3589  168.5117 C.ar    1  UNL1       -0.0045
     17 C         142.5687  141.7712  168.9708 C.ar    1  UNL1       -0.0219
     18 C         143.4978  142.3785  169.9798 C.3     1  UNL1        0.0310
     19 C         141.4287  142.5763  168.4209 C.ar    1  UNL1       -0.0045
     20 C         140.4997  141.9690  167.4119 C.ar    1  UNL1       -0.0024
     21 N         137.7115  140.2300  158.0287 N.am    1  UNL1       -0.3009
     22 C         138.0742  141.4922  157.3040 C.2     1  UNL1        0.2426
     23 O         139.2428  142.3121  157.7644 O.2     1  UNL1       -0.2733
     24 H         136.9445  139.6918  157.7265 H       1  UNL1        0.1496
     25 C         137.2681  141.9345  156.1188 C.3     1  UNL1        0.1759
     26 N         135.7697  141.9281  156.1862 N.am    1  UNL1       -0.2931
     27 C         135.0128  140.6586  155.9308 C.2     1  UNL1        0.2462
     28 O         135.7544  139.3954  155.6078 O.2     1  UNL1       -0.2701
     29 H         135.2829  142.7572  156.3982 H       1  UNL1        0.1502
     30 C         133.5143  140.6522  155.9982 C.ar    1  UNL1        0.0533
     31 C         132.7189  141.5413  155.0890 C.ar    1  UNL1        0.0045
     32 C         131.2204  141.5349  155.1564 C.ar    1  UNL1        0.0001
     33 C         130.5173  140.6394  156.1330 C.ar    1  UNL1        0.0039
     34 C         131.3129  139.7503  157.0422 C.ar    1  UNL1        0.0716
     35 C         132.8113  139.7567  156.9748 C.ar    1  UNL1        0.0084
     36 C         130.6098  138.8548  158.0188 C.3     1  UNL1        0.4186
     37 F         129.9068  137.9592  158.9955 F       1  UNL1       -0.1659
     38 F         129.2912  139.4367  157.6032 F       1  UNL1       -0.1659
     39 F         131.9284  138.2728  158.4344 F       1  UNL1       -0.1659
     40 O         140.2454  138.1743  157.9660 O.3     1  UNL1       -0.3531
     41 C         141.9768  140.0788  157.6125 C.3     1  UNL1        0.0346
     42 C         141.5263  138.6700  157.3630 C.3     1  UNL1        0.1423
@<TRIPOS>BOND
     1    41    42    1
     2    42    40    1
     3     1    40    1
     4     1     2    1
     5     2     3    1
     6     6     3    1
     7     6     7    1
     8     7     8    1
     9     8     9    1
    10     9    10    1
    11     9    14    1
    12    14    15   ar
    13    15    16   ar
    14    16    17   ar
    15    17    18    1
    16    17    19   ar
    17    19    20   ar
    18     9    11    1
    19    11    12    1
    20     3     4    1
    21     4     5    1
    22     5    21    1
    23    21    22   am
    24    22    23    2
    25    22    25    1
    26    25    26    1
    27    26    27   am
    28    27    28    2
    29    27    30    1
    30    30    31   ar
    31    31    32   ar
    32    32    33   ar
    33    33    34   ar
    34    34    36    1
    35    36    37    1
    36    36    38    1
    37    36    39    1
    38    34    35   ar
    39     5     1    1
    40    35    30   ar
    41    12     6    1
    42    20    14   ar
    43    10    13    1
    44    21    24    1
    45    26    29    1
@<TRIPOS>MOLECULE
*****
 42 45 0 0 0
SMALL
GASTEIGER

@<TRIPOS>ATOM
      1 C         142.4695  143.1048  159.7779 C.3     1  UNL1        0.1502
      2 C         142.6267  142.2993  158.5224 C.3     1  UNL1        0.1037
      3 N         142.8239  140.8647  158.9136 N.3     1  UNL1       -0.2704
      4 C         142.7885  140.7836  160.4110 C.3     1  UNL1        0.0944
      5 C         142.5695  142.1680  160.9452 C.3     1  UNL1        0.1161
      6 C         143.0217  139.7134  157.9726 C.3     1  UNL1        0.0578
      7 C         143.8518  139.8897  156.7359 C.3     1  UNL1        0.0187
      8 C         144.0496  138.7384  155.7949 C.3     1  UNL1        0.0325
      9 C         143.4172  137.4108  156.0908 C.3     1  UNL1        0.1070
     10 O         144.1115  137.0870  154.8012 O.3     1  UNL1       -0.3827
     11 C         142.5870  137.2345  157.3276 C.3     1  UNL1        0.0325
     12 C         142.3892  138.3858  158.2685 C.3     1  UNL1        0.0187
     13 H         144.5780  137.8739  154.4787 H       1  UNL1        0.2107
     14 C         143.0259  135.9707  155.9387 C.ar    1  UNL1        0.0017
     15 C         142.3304  135.5101  154.6921 C.ar    1  UNL1       -0.0024
     16 C         141.9392  134.0699  154.5402 C.ar    1  UNL1       -0.0045
     17 C         142.2435  133.0906  155.6348 C.ar    1  UNL1       -0.0219
     18 C         141.8522  131.6504  155.4827 C.3     1  UNL1        0.0310
     19 C         142.9390  133.5513  156.8814 C.ar    1  UNL1       -0.0045
     20 C         143.3302  134.9913  157.0334 C.ar    1  UNL1       -0.0024
     21 N         142.4683  142.5488  162.3925 N.am    1  UNL1       -0.3009
     22 C         143.4828  143.4733  162.9976 C.2     1  UNL1        0.2426
     23 O         144.5986  144.0169  162.1552 O.2     1  UNL1       -0.2733
     24 H         141.7360  142.1920  162.9454 H       1  UNL1        0.1496
     25 C         143.3816  143.8541  164.4449 C.3     1  UNL1        0.1759
     26 N         142.7390  142.9167  165.4239 N.am    1  UNL1       -0.2931
     27 C         141.2454  142.8784  165.5558 C.2     1  UNL1        0.2462
     28 O         140.3943  143.7774  164.7088 O.2     1  UNL1       -0.2701
     29 H         143.2976  142.3267  165.9798 H       1  UNL1        0.1502
     30 C         140.6027  141.9410  166.5348 C.ar    1  UNL1        0.0533
     31 C         140.6760  142.2268  168.0055 C.ar    1  UNL1        0.0045
     32 C         140.0333  141.2895  168.9846 C.ar    1  UNL1        0.0001
     33 C         139.3173  140.0665  168.4929 C.ar    1  UNL1        0.0039
     34 C         139.2441  139.7809  167.0222 C.ar    1  UNL1        0.0716
     35 C         139.8868  140.7181  166.0432 C.ar    1  UNL1        0.0084
     36 C         138.5281  138.5579  166.5305 C.3     1  UNL1        0.4186
     37 F         137.8122  137.3349  166.0388 F       1  UNL1       -0.1659
     38 F         139.5433  138.4032  165.4370 F       1  UNL1       -0.1659
     39 F         137.5130  138.7125  167.6239 F       1  UNL1       -0.1659
     40 O         142.2507  144.5869  159.8531 O.3     1  UNL1       -0.3531
     41 C         140.4352  145.4894  161.4776 C.3     1  UNL1        0.0346
     42 C         140.8727  145.1306  160.0885 C.3     1  UNL1        0.1423
@<TRIPOS>BOND
     1    41    42    1
     2    42    40    1
     3     1    40    1
     4     1     2    1
     5     2     3    1
     6     6     3    1
     7     6     7    1
     8     7     8    1
     9     8     9    1
    10     9    10    1
    11     9    14    1
    12    14    15   ar
    13    15    16   ar
    14    16    17   ar
    15    17    18    1
    16    17    19   ar
    17    19    20   ar
    18     9    11    1
    19    11    12    1
    20     3     4    1
    21     4     5    1
    22     5    21    1
    23    21    22   am
    24    22    23    2
    25    22    25    1
    26    25    26    1
    27    26    27   am
    28    27    28    2
    29    27    30    1
    30    30    31   ar
    31    31    32   ar
    32    32    33   ar
    33    33    34   ar
    34    34    36    1
    35    36    37    1
    36    36    38    1
    37    36    39    1
    38    34    35   ar
    39     5     1    1
    40    35    30   ar
    41    12     6    1
    42    20    14   ar
    43    10    13    1
    44    21    24    1
    45    26    29    1
@<TRIPOS>MOLECULE
*****
 42 45 0 0 0
SMALL
GASTEIGER

@<TRIPOS>ATOM
      1 C         142.3370  141.5629  159.7109 C.3     1  UNL1        0.1502
      2 C         142.9106  141.2905  158.3519 C.3     1  UNL1        0.1037
      3 N         144.2987  141.8577  158.3124 N.3     1  UNL1       -0.2704
      4 C         144.5831  142.4806  159.6470 C.3     1  UNL1        0.0944
      5 C         143.3707  142.2984  160.5113 C.3     1  UNL1        0.1161
      6 C         145.2377  141.8102  157.1435 C.3     1  UNL1        0.0578
      7 C         144.8319  141.1043  155.8838 C.3     1  UNL1        0.0187
      8 C         145.7708  141.0568  154.7150 C.3     1  UNL1        0.0325
      9 C         147.1155  141.7154  154.8059 C.3     1  UNL1        0.1070
     10 O         147.1851  141.1726  153.4093 O.3     1  UNL1       -0.3827
     11 C         147.5212  142.4213  156.0657 C.3     1  UNL1        0.0325
     12 C         146.5823  142.4687  157.2345 C.3     1  UNL1        0.0187
     13 H         146.3602  140.7063  153.2021 H       1  UNL1        0.2107
     14 C         148.4843  142.1854  154.4117 C.ar    1  UNL1        0.0017
     15 C         149.6953  141.6311  155.1018 C.ar    1  UNL1       -0.0024
     16 C         151.0641  142.1012  154.7075 C.ar    1  UNL1       -0.0045
     17 C         151.2219  143.1255  153.6232 C.ar    1  UNL1       -0.0219
     18 C         152.5908  143.5955  153.2290 C.3     1  UNL1        0.0310
     19 C         150.0109  143.6798  152.9331 C.ar    1  UNL1       -0.0045
     20 C         148.6421  143.2097  153.3273 C.ar    1  UNL1       -0.0024
     21 N         143.2186  142.7691  161.9274 N.am    1  UNL1       -0.3009
     22 C         142.5157  144.0623  162.2165 C.2     1  UNL1        0.2426
     23 O         141.9648  144.8847  161.0895 O.2     1  UNL1       -0.2733
     24 H         143.5802  142.2293  162.6671 H       1  UNL1        0.1496
     25 C         142.3637  144.5330  163.6326 C.3     1  UNL1        0.1759
     26 N         141.5102  143.7587  164.5928 N.am    1  UNL1       -0.2931
     27 C         142.0811  142.5769  165.3188 C.2     1  UNL1        0.2462
     28 O         143.5056  142.1693  165.0847 O.2     1  UNL1       -0.2701
     29 H         140.5753  144.0261  164.7465 H       1  UNL1        0.1502
     30 C         141.2277  141.8024  166.2791 C.ar    1  UNL1        0.0533
     31 C         141.1350  142.2308  167.7136 C.ar    1  UNL1        0.0045
     32 C         140.2816  141.4564  168.6740 C.ar    1  UNL1        0.0001
     33 C         139.5209  140.2538  168.1997 C.ar    1  UNL1        0.0039
     34 C         139.6136  139.8255  166.7651 C.ar    1  UNL1        0.0716
     35 C         140.4670  140.5999  165.8048 C.ar    1  UNL1        0.0084
     36 C         138.8529  138.6229  166.2908 C.3     1  UNL1        0.4186
     37 F         138.0922  137.4202  165.8165 F       1  UNL1       -0.1659
     38 F         137.7007  139.0040  167.1723 F       1  UNL1       -0.1659
     39 F         140.0051  138.2417  165.4093 F       1  UNL1       -0.1659
     40 O         140.9699  141.1690  160.1860 O.3     1  UNL1       -0.3531
     41 C         138.9588  142.2533  161.4228 C.3     1  UNL1        0.0346
     42 C         139.8698  142.1876  160.2329 C.3     1  UNL1        0.1423
@<TRIPOS>BOND
     1    41    42    1
     2    42    40    1
     3     1    40    1
     4     1     2    1
     5     2     3    1
     6     6     3    1
     7     6     7    1
     8     7     8    1
     9     8     9    1
    10     9    10    1
    11     9    14    1
    12    14    15   ar
    13    15    16   ar
    14    16    17   ar
    15    17    18    1
    16    17    19   ar
    17    19    20   ar
    18     9    11    1
    19    11    12    1
    20     3     4    1
    21     4     5    1
    22     5    21    1
    23    21    22   am
    24    22    23    2
    25    22    25    1
    26    25    26    1
    27    26    27   am
    28    27    28    2
    29    27    30    1
    30    30    31   ar
    31    31    32   ar
    32    32    33   ar
    33    33    34   ar
    34    34    36    1
    35    36    37    1
    36    36    38    1
    37    36    39    1
    38    34    35   ar
    39     5     1    1
    40    35    30   ar
    41    12     6    1
    42    20    14   ar
    43    10    13    1
    44    21    24    1
    45    26    29    1
@<TRIPOS>MOLECULE
*****
 42 45 0 0 0
SMALL
GASTEIGER

@<TRIPOS>ATOM
      1 C         142.5924  142.0809  159.9525 C.3     1  UNL1        0.1502
      2 C         142.4201  143.1205  158.8851 C.3     1  UNL1        0.1037
      3 N         140.9512  143.3744  158.7181 N.3     1  UNL1       -0.2704
      4 C         140.2157  142.4916  159.6822 C.3     1  UNL1        0.0944
      5 C         141.2300  141.6922  160.4452 C.3     1  UNL1        0.1161
      6 C         140.3274  144.3413  157.7558 C.3     1  UNL1        0.0578
      7 C         139.3963  143.8437  156.6902 C.3     1  UNL1        0.0187
      8 C         138.7725  144.8106  155.7280 C.3     1  UNL1        0.0325
      9 C         139.0799  146.2752  155.8313 C.3     1  UNL1        0.1070
     10 O         138.1424  146.2877  154.6604 O.3     1  UNL1       -0.3827
     11 C         140.0109  146.7728  156.8968 C.3     1  UNL1        0.0325
     12 C         140.6347  145.8059  157.8591 C.3     1  UNL1        0.0187
     13 H         137.8509  145.3823  154.4699 H       1  UNL1        0.2107
     14 C         139.0616  147.7441  155.5279 C.ar    1  UNL1        0.0017
     15 C         139.6500  148.2524  154.2452 C.ar    1  UNL1       -0.0024
     16 C         139.6316  149.7214  153.9419 C.ar    1  UNL1       -0.0045
     17 C         139.0248  150.6818  154.9213 C.ar    1  UNL1       -0.0219
     18 C         139.0065  152.1508  154.6179 C.3     1  UNL1        0.0310
     19 C         138.4364  150.1735  156.2040 C.ar    1  UNL1       -0.0045
     20 C         138.4548  148.7046  156.5073 C.ar    1  UNL1       -0.0024
     21 N         140.9338  140.6814  161.5132 N.am    1  UNL1       -0.3009
     22 C         140.8213  139.2280  161.1599 C.2     1  UNL1        0.2426
     23 O         141.0048  138.7853  159.7386 O.2     1  UNL1       -0.2733
     24 H         140.8134  140.9720  162.4461 H       1  UNL1        0.1496
     25 C         140.5251  138.2173  162.2280 C.3     1  UNL1        0.1759
     26 N         141.0603  138.4136  163.6155 N.am    1  UNL1       -0.2931
     27 C         140.3768  139.3614  164.5558 C.2     1  UNL1        0.2462
     28 O         139.1581  140.1130  164.1088 O.2     1  UNL1       -0.2701
     29 H         141.8602  137.9203  163.9089 H       1  UNL1        0.1502
     30 C         140.9119  139.5578  165.9433 C.ar    1  UNL1        0.0533
     31 C         142.2641  139.0210  166.3085 C.ar    1  UNL1        0.0045
     32 C         142.7993  139.2173  167.6960 C.ar    1  UNL1        0.0001
     33 C         141.9823  139.9504  168.7183 C.ar    1  UNL1        0.0039
     34 C         140.6301  140.4872  168.3530 C.ar    1  UNL1        0.0716
     35 C         140.0949  140.2909  166.9655 C.ar    1  UNL1        0.0084
     36 C         139.8131  141.2203  169.3752 C.3     1  UNL1        0.4186
     37 F         138.9960  141.9535  170.3975 F       1  UNL1       -0.1659
     38 F         140.5589  142.4842  169.0648 F       1  UNL1       -0.1659
     39 F         139.0673  139.9564  169.6856 F       1  UNL1       -0.1659
     40 O         143.8979  141.5271  160.4414 O.3     1  UNL1       -0.3531
     41 C         145.1180  141.4042  162.7319 C.3     1  UNL1        0.0346
     42 C         144.6276  142.2057  161.5626 C.3     1  UNL1        0.1423
@<TRIPOS>BOND
     1    41    42    1
     2    42    40    1
     3     1    40    1
     4     1     2    1
     5     2     3    1
     6     6     3    1
     7     6     7    1
     8     7     8    1
     9     8     9    1
    10     9    10    1
    11     9    14    1
    12    14    15   ar
    13    15    16   ar
    14    16    17   ar
    15    17    18    1
    16    17    19   ar
    17    19    20   ar
    18     9    11    1
    19    11    12    1
    20     3     4    1
    21     4     5    1
    22     5    21    1
    23    21    22   am
    24    22    23    2
    25    22    25    1
    26    25    26    1
    27    26    27   am
    28    27    28    2
    29    27    30    1
    30    30    31   ar
    31    31    32   ar
    32    32    33   ar
    33    33    34   ar
    34    34    36    1
    35    36    37    1
    36    36    38    1
    37    36    39    1
    38    34    35   ar
    39     5     1    1
    40    35    30   ar
    41    12     6    1
    42    20    14   ar
    43    10    13    1
    44    21    24    1
    45    26    29    1
@<TRIPOS>MOLECULE
*****
 42 45 0 0 0
SMALL
GASTEIGER

@<TRIPOS>ATOM
      1 C         141.8291  140.4639  158.9770 C.3     1  UNL1        0.1502
      2 C         141.5103  140.9339  160.3654 C.3     1  UNL1        0.1037
      3 N         140.7801  139.8306  161.0721 N.3     1  UNL1       -0.2704
      4 C         140.6475  138.6787  160.1206 C.3     1  UNL1        0.0944
      5 C         141.2958  139.0700  158.8257 C.3     1  UNL1        0.1161
      6 C         140.2717  139.8720  162.4828 C.3     1  UNL1        0.0578
      7 C         139.0612  139.0740  162.8674 C.3     1  UNL1        0.0187
      8 C         138.5529  139.1154  164.2780 C.3     1  UNL1        0.0325
      9 C         139.2550  139.9548  165.3039 C.3     1  UNL1        0.1070
     10 O         138.1558  139.3789  166.1465 O.3     1  UNL1       -0.3827
     11 C         140.4654  140.7528  164.9193 C.3     1  UNL1        0.0325
     12 C         140.9738  140.7114  163.5087 C.3     1  UNL1        0.0187
     13 H         137.6024  138.7970  165.6025 H       1  UNL1        0.2107
     14 C         139.5753  140.5942  166.6225 C.ar    1  UNL1        0.0017
     15 C         140.1920  141.9609  166.6633 C.ar    1  UNL1       -0.0024
     16 C         140.5123  142.6001  167.9820 C.ar    1  UNL1       -0.0045
     17 C         140.2157  141.8727  169.2598 C.ar    1  UNL1       -0.0219
     18 C         140.5360  142.5120  170.5785 C.3     1  UNL1        0.0310
     19 C         139.5990  140.5059  169.2190 C.ar    1  UNL1       -0.0045
     20 C         139.2788  139.8667  167.9004 C.ar    1  UNL1       -0.0024
     21 N         141.3937  138.2173  157.5956 N.am    1  UNL1       -0.3009
     22 C         140.2024  138.0550  156.6988 C.2     1  UNL1        0.2426
     23 O         138.9131  138.7455  157.0321 O.2     1  UNL1       -0.2733
     24 H         142.2399  137.7641  157.3768 H       1  UNL1        0.1496
     25 C         140.3003  137.2023  155.4686 C.3     1  UNL1        0.1759
     26 N         140.5580  135.7300  155.5952 N.am    1  UNL1       -0.2931
     27 C         141.9572  135.2281  155.7951 C.2     1  UNL1        0.2462
     28 O         143.0988  136.1984  155.8686 O.2     1  UNL1       -0.2701
     29 H         139.8088  135.0932  155.5469 H       1  UNL1        0.1502
     30 C         142.2151  133.7558  155.9217 C.ar    1  UNL1        0.0533
     31 C         141.3522  132.7771  155.1819 C.ar    1  UNL1        0.0045
     32 C         141.6099  131.3047  155.3083 C.ar    1  UNL1        0.0001
     33 C         142.7307  130.8112  156.1747 C.ar    1  UNL1        0.0039
     34 C         143.5935  131.7901  156.9145 C.ar    1  UNL1        0.0716
     35 C         143.3357  133.2624  156.7880 C.ar    1  UNL1        0.0084
     36 C         144.7142  131.2966  157.7808 C.3     1  UNL1        0.4186
     37 F         145.8349  130.8032  158.6472 F       1  UNL1       -0.1659
     38 F         145.0023  132.7047  158.2102 F       1  UNL1       -0.1659
     39 F         144.4262  129.8886  157.3514 F       1  UNL1       -0.1659
     40 O         142.5538  141.2497  157.9248 O.3     1  UNL1       -0.3531
     41 C         140.2821  142.0787  156.9750 C.3     1  UNL1        0.0346
     42 C         141.7819  142.0935  156.9541 C.3     1  UNL1        0.1423
@<TRIPOS>BOND
     1    41    42    1
     2    42    40    1
     3     1    40    1
     4     1     2    1
     5     2     3    1
     6     6     3    1
     7     6     7    1
     8     7     8    1
     9     8     9    1
    10     9    10    1
    11     9    14    1
    12    14    15   ar
    13    15    16   ar
    14    16    17   ar
    15    17    18    1
    16    17    19   ar
    17    19    20   ar
    18     9    11    1
    19    11    12    1
    20     3     4    1
    21     4     5    1
    22     5    21    1
    23    21    22   am
    24    22    23    2
    25    22    25    1
    26    25    26    1
    27    26    27   am
    28    27    28    2
    29    27    30    1
    30    30    31   ar
    31    31    32   ar
    32    32    33   ar
    33    33    34   ar
    34    34    36    1
    35    36    37    1
    36    36    38    1
    37    36    39    1
    38    34    35   ar
    39     5     1    1
    40    35    30   ar
    41    12     6    1
    42    20    14   ar
    43    10    13    1
    44    21    24    1
    45    26    29    1
