@<TRIPOS>MOLECULE
*****
 22 25 0 0 0
SMALL
GASTEIGER

@<TRIPOS>ATOM
      1 O         137.4650  138.1914  166.6332 O.2     1  UNL1       -0.2666
      2 C         138.7044  138.9657  166.2950 C.2     1  UNL1        0.2837
      3 C         139.4352  139.7174  167.3678 C.ar    1  UNL1        0.1985
      4 N         139.1743  139.8785  168.8361 N.ar    1  UNL1       -0.2226
      5 C         140.2524  140.7523  169.4054 C.ar    1  UNL1        0.0993
      6 C         140.5095  141.2519  170.7962 C.ar    1  UNL1        0.0207
      7 C         141.6940  142.1304  171.0705 C.ar    1  UNL1        0.0021
      8 C         142.6213  142.5094  169.9540 C.ar    1  UNL1        0.0082
      9 C         142.3641  142.0098  168.5632 C.ar    1  UNL1        0.0518
     10 BR        143.2914  142.3888  167.4468 Br      1  UNL1       -0.0474
     11 C         141.1797  141.1313  168.2890 C.ar    1  UNL1        0.0853
     12 N         140.6747  140.4917  167.0297 N.ar    1  UNL1       -0.3056
     13 C         141.1832  140.5143  165.6187 C.3     1  UNL1        0.1291
     14 C         140.4524  139.7626  164.5459 C.3     1  UNL1        0.1186
     15 N         139.2130  138.9883  164.8841 N.am    1  UNL1       -0.2675
     16 C         138.4822  138.2366  163.8113 C.3     1  UNL1        0.1206
     17 C         138.5749  138.6874  162.3836 C.ar    1  UNL1       -0.0023
     18 C         137.7315  139.8304  161.9018 C.ar    1  UNL1       -0.0026
     19 C         137.8241  140.2812  160.4741 C.ar    1  UNL1       -0.0003
     20 C         138.7602  139.5889  159.5282 C.ar    1  UNL1       -0.0000
     21 C         139.6036  138.4458  160.0101 C.ar    1  UNL1       -0.0003
     22 C         139.5109  137.9951  161.4378 C.ar    1  UNL1       -0.0026
@<TRIPOS>BOND
     1     1     2    2
     2     2     3    1
     3     3     4   ar
     4     4     5   ar
     5     5     6   ar
     6     6     7   ar
     7     7     8   ar
     8     8     9   ar
     9     9    10    1
    10     9    11   ar
    11    11    12   ar
    12    12    13    1
    13    13    14    1
    14    14    15    1
    15    15    16    1
    16    16    17    1
    17    17    18   ar
    18    18    19   ar
    19    19    20   ar
    20    20    21   ar
    21    21    22   ar
    22    15     2   am
    23    22    17   ar
    24    12     3   ar
    25    11     5   ar
@<TRIPOS>MOLECULE
*****
 22 25 0 0 0
SMALL
GASTEIGER

@<TRIPOS>ATOM
      1 O         138.1692  143.1971  161.0398 O.2     1  UNL1       -0.2666
      2 C         139.0198  143.4328  162.2526 C.2     1  UNL1        0.2837
      3 C         138.9559  142.4807  163.4100 C.ar    1  UNL1        0.1985
      4 N         138.1559  141.2329  163.6403 N.ar    1  UNL1       -0.2226
      5 C         138.5120  140.6974  164.9954 C.ar    1  UNL1        0.0993
      6 C         138.0392  139.4934  165.7548 C.ar    1  UNL1        0.0207
      7 C         138.5866  139.2062  167.1215 C.ar    1  UNL1        0.0021
      8 C         139.6067  140.1230  167.7288 C.ar    1  UNL1        0.0082
      9 C         140.0795  141.3270  166.9693 C.ar    1  UNL1        0.0518
     10 BR        141.0997  142.2438  167.5766 Br      1  UNL1       -0.0474
     11 C         139.5322  141.6142  165.6027 C.ar    1  UNL1        0.0853
     12 N         139.8065  142.7163  164.6228 N.ar    1  UNL1       -0.3056
     13 C         140.7209  143.9040  164.6783 C.3     1  UNL1        0.1291
     14 C         140.7848  144.8561  163.5209 C.3     1  UNL1        0.1186
     15 N         139.9342  144.6205  162.3081 N.am    1  UNL1       -0.2675
     16 C         139.9981  145.5726  161.1507 C.3     1  UNL1        0.1206
     17 C         140.7477  145.1934  159.9081 C.ar    1  UNL1       -0.0023
     18 C         141.8555  144.1846  159.9790 C.ar    1  UNL1       -0.0026
     19 C         142.6052  143.8053  158.7363 C.ar    1  UNL1       -0.0003
     20 C         142.2470  144.4349  157.4227 C.ar    1  UNL1       -0.0000
     21 C         141.1391  145.4437  157.3519 C.ar    1  UNL1       -0.0003
     22 C         140.3895  145.8229  158.5945 C.ar    1  UNL1       -0.0026
@<TRIPOS>BOND
     1     1     2    2
     2     2     3    1
     3     3     4   ar
     4     4     5   ar
     5     5     6   ar
     6     6     7   ar
     7     7     8   ar
     8     8     9   ar
     9     9    10    1
    10     9    11   ar
    11    11    12   ar
    12    12    13    1
    13    13    14    1
    14    14    15    1
    15    15    16    1
    16    16    17    1
    17    17    18   ar
    18    18    19   ar
    19    19    20   ar
    20    20    21   ar
    21    21    22   ar
    22    15     2   am
    23    22    17   ar
    24    12     3   ar
    25    11     5   ar
@<TRIPOS>MOLECULE
*****
 22 25 0 0 0
SMALL
GASTEIGER

@<TRIPOS>ATOM
      1 O         138.7556  144.9315  163.9923 O.2     1  UNL1       -0.2666
      2 C         139.9249  144.2223  163.3760 C.2     1  UNL1        0.2837
      3 C         140.2783  144.4672  161.9390 C.ar    1  UNL1        0.1985
      4 N         139.6630  145.3448  160.8896 N.ar    1  UNL1       -0.2226
      5 C         140.4520  145.1780  159.6248 C.ar    1  UNL1        0.0993
      6 C         140.3086  145.7924  158.2640 C.ar    1  UNL1        0.0207
      7 C         141.2682  145.4261  157.1708 C.ar    1  UNL1        0.0021
      8 C         142.3712  144.4453  157.4386 C.ar    1  UNL1        0.0082
      9 C         142.5145  143.8309  158.7994 C.ar    1  UNL1        0.0518
     10 BR        143.6175  142.8502  159.0671 Br      1  UNL1       -0.0474
     11 C         141.5549  144.1973  159.8925 C.ar    1  UNL1        0.0853
     12 N         141.4476  143.7580  161.3227 N.ar    1  UNL1       -0.3056
     13 C         142.2635  142.8038  162.1436 C.3     1  UNL1        0.1291
     14 C         141.9101  142.5588  163.5806 C.3     1  UNL1        0.1186
     15 N         140.7408  143.2681  164.1969 N.am    1  UNL1       -0.2675
     16 C         140.3874  143.0231  165.6339 C.3     1  UNL1        0.1206
     17 C         139.7433  141.7301  166.0380 C.ar    1  UNL1       -0.0023
     18 C         138.8110  141.0296  165.0945 C.ar    1  UNL1       -0.0026
     19 C         138.1669  139.7366  165.4985 C.ar    1  UNL1       -0.0003
     20 C         138.4551  139.1440  166.8461 C.ar    1  UNL1       -0.0000
     21 C         139.3874  139.8446  167.7896 C.ar    1  UNL1       -0.0003
     22 C         140.0315  141.1376  167.3856 C.ar    1  UNL1       -0.0026
@<TRIPOS>BOND
     1     1     2    2
     2     2     3    1
     3     3     4   ar
     4     4     5   ar
     5     5     6   ar
     6     6     7   ar
     7     7     8   ar
     8     8     9   ar
     9     9    10    1
    10     9    11   ar
    11    11    12   ar
    12    12    13    1
    13    13    14    1
    14    14    15    1
    15    15    16    1
    16    16    17    1
    17    17    18   ar
    18    18    19   ar
    19    19    20   ar
    20    20    21   ar
    21    21    22   ar
    22    15     2   am
    23    22    17   ar
    24    12     3   ar
    25    11     5   ar
@<TRIPOS>MOLECULE
*****
 22 25 0 0 0
SMALL
GASTEIGER

@<TRIPOS>ATOM
      1 O         142.0184  138.9816  163.6479 O.2     1  UNL1       -0.2666
      2 C         141.0400  139.1137  164.7771 C.2     1  UNL1        0.2837
      3 C         141.4008  139.9160  165.9921 C.ar    1  UNL1        0.1985
      4 N         142.6365  140.6838  166.3574 N.ar    1  UNL1       -0.2226
      5 C         142.4218  141.2903  167.7124 C.ar    1  UNL1        0.0993
      6 C         143.2956  142.1497  168.5772 C.ar    1  UNL1        0.0207
      7 C         142.8010  142.6161  169.9143 C.ar    1  UNL1        0.0021
      8 C         141.4326  142.2231  170.3865 C.ar    1  UNL1        0.0082
      9 C         140.5588  141.3638  169.5216 C.ar    1  UNL1        0.0518
     10 BR        139.1903  140.9709  169.9939 Br      1  UNL1       -0.0474
     11 C         141.0534  140.8974  168.1846 C.ar    1  UNL1        0.0853
     12 N         140.4224  140.0480  167.1214 N.ar    1  UNL1       -0.3056
     13 C         139.0832  139.3777  167.0357 C.3     1  UNL1        0.1291
     14 C         138.7225  138.5754  165.8207 C.3     1  UNL1        0.1186
     15 N         139.7009  138.4434  164.6914 N.am    1  UNL1       -0.2675
     16 C         139.3401  137.6411  163.4765 C.3     1  UNL1        0.1206
     17 C         139.0416  138.3353  162.1807 C.ar    1  UNL1       -0.0023
     18 C         139.9336  138.1233  160.9935 C.ar    1  UNL1       -0.0026
     19 C         139.6351  138.8175  159.6977 C.ar    1  UNL1       -0.0003
     20 C         138.4447  139.7237  159.5891 C.ar    1  UNL1       -0.0000
     21 C         137.5528  139.9357  160.7765 C.ar    1  UNL1       -0.0003
     22 C         137.8512  139.2415  162.0722 C.ar    1  UNL1       -0.0026
@<TRIPOS>BOND
     1     1     2    2
     2     2     3    1
     3     3     4   ar
     4     4     5   ar
     5     5     6   ar
     6     6     7   ar
     7     7     8   ar
     8     8     9   ar
     9     9    10    1
    10     9    11   ar
    11    11    12   ar
    12    12    13    1
    13    13    14    1
    14    14    15    1
    15    15    16    1
    16    16    17    1
    17    17    18   ar
    18    18    19   ar
    19    19    20   ar
    20    20    21   ar
    21    21    22   ar
    22    15     2   am
    23    22    17   ar
    24    12     3   ar
    25    11     5   ar
@<TRIPOS>MOLECULE
*****
 22 25 0 0 0
SMALL
GASTEIGER

@<TRIPOS>ATOM
      1 O         143.9804  144.1234  164.6365 O.2     1  UNL1       -0.2666
      2 C         142.9059  143.2292  164.0924 C.2     1  UNL1        0.2837
      3 C         142.2663  143.5428  162.7724 C.ar    1  UNL1        0.1985
      4 N         142.4858  144.6544  161.7895 N.ar    1  UNL1       -0.2226
      5 C         141.5471  144.4473  160.6381 C.ar    1  UNL1        0.0993
      6 C         141.3171  145.2273  159.3777 C.ar    1  UNL1        0.0207
      7 C         140.2875  144.7677  158.3885 C.ar    1  UNL1        0.0021
      8 C         139.4878  143.5280  158.6597 C.ar    1  UNL1        0.0082
      9 C         139.7177  142.7479  159.9201 C.ar    1  UNL1        0.0518
     10 BR        138.9179  141.5082  160.1913 Br      1  UNL1       -0.0474
     11 C         140.7473  143.2076  160.9093 C.ar    1  UNL1        0.0853
     12 N         141.1918  142.6486  162.2283 N.ar    1  UNL1       -0.3056
     13 C         140.7570  141.4408  163.0044 C.3     1  UNL1        0.1291
     14 C         141.3967  141.1273  164.3245 C.3     1  UNL1        0.1186
     15 N         142.4711  142.0215  164.8685 N.am    1  UNL1       -0.2675
     16 C         143.1108  141.7079  166.1885 C.3     1  UNL1        0.1206
     17 C         142.4969  142.2166  167.4591 C.ar    1  UNL1       -0.0023
     18 C         141.0499  142.6108  167.4875 C.ar    1  UNL1       -0.0026
     19 C         140.4359  143.1196  168.7581 C.ar    1  UNL1       -0.0003
     20 C         141.2690  143.2340  170.0002 C.ar    1  UNL1       -0.0000
     21 C         142.7160  142.8397  169.9718 C.ar    1  UNL1       -0.0003
     22 C         143.3299  142.3310  168.7013 C.ar    1  UNL1       -0.0026
@<TRIPOS>BOND
     1     1     2    2
     2     2     3    1
     3     3     4   ar
     4     4     5   ar
     5     5     6   ar
     6     6     7   ar
     7     7     8   ar
     8     8     9   ar
     9     9    10    1
    10     9    11   ar
    11    11    12   ar
    12    12    13    1
    13    13    14    1
    14    14    15    1
    15    15    16    1
    16    16    17    1
    17    17    18   ar
    18    18    19   ar
    19    19    20   ar
    20    20    21   ar
    21    21    22   ar
    22    15     2   am
    23    22    17   ar
    24    12     3   ar
    25    11     5   ar
@<TRIPOS>MOLECULE
*****
 22 25 0 0 0
SMALL
GASTEIGER

@<TRIPOS>ATOM
      1 O         143.2802  143.5752  159.6293 O.2     1  UNL1       -0.2666
      2 C         142.1313  144.1304  160.4178 C.2     1  UNL1        0.2837
      3 C         141.9116  143.6898  161.8348 C.ar    1  UNL1        0.1985
      4 N         142.6562  142.7295  162.7142 N.ar    1  UNL1       -0.2226
      5 C         141.9675  142.6912  164.0462 C.ar    1  UNL1        0.0993
      6 C         142.2547  141.9244  165.3029 C.ar    1  UNL1        0.0207
      7 C         141.3718  142.0944  166.5035 C.ar    1  UNL1        0.0021
      8 C         140.2015  143.0311  166.4473 C.ar    1  UNL1        0.0082
      9 C         139.9143  143.7978  165.1906 C.ar    1  UNL1        0.0518
     10 BR        138.7440  144.7345  165.1344 Br      1  UNL1       -0.0474
     11 C         140.7972  143.6279  163.9900 C.ar    1  UNL1        0.0853
     12 N         140.7627  144.2450  162.6233 N.ar    1  UNL1       -0.3056
     13 C         139.8336  145.2409  161.9949 C.3     1  UNL1        0.1291
     14 C         140.0533  145.6815  160.5780 C.3     1  UNL1        0.1186
     15 N         141.2022  145.1263  159.7894 N.am    1  UNL1       -0.2675
     16 C         141.4219  145.5669  158.3725 C.3     1  UNL1        0.1206
     17 C         140.3239  145.4171  157.3617 C.ar    1  UNL1       -0.0023
     18 C         139.7307  144.0658  157.0935 C.ar    1  UNL1       -0.0026
     19 C         138.6326  143.9159  156.0826 C.ar    1  UNL1       -0.0003
     20 C         138.1277  145.1175  155.3399 C.ar    1  UNL1       -0.0000
     21 C         138.7210  146.4689  155.6082 C.ar    1  UNL1       -0.0003
     22 C         139.8191  146.6187  156.6191 C.ar    1  UNL1       -0.0026
@<TRIPOS>BOND
     1     1     2    2
     2     2     3    1
     3     3     4   ar
     4     4     5   ar
     5     5     6   ar
     6     6     7   ar
     7     7     8   ar
     8     8     9   ar
     9     9    10    1
    10     9    11   ar
    11    11    12   ar
    12    12    13    1
    13    13    14    1
    14    14    15    1
    15    15    16    1
    16    16    17    1
    17    17    18   ar
    18    18    19   ar
    19    19    20   ar
    20    20    21   ar
    21    21    22   ar
    22    15     2   am
    23    22    17   ar
    24    12     3   ar
    25    11     5   ar
@<TRIPOS>MOLECULE
*****
 22 25 0 0 0
SMALL
GASTEIGER

@<TRIPOS>ATOM
      1 O         138.1998  137.9445  165.8402 O.2     1  UNL1       -0.2666
      2 C         138.6591  139.3150  165.4392 C.2     1  UNL1        0.2837
      3 C         138.5708  139.7458  164.0051 C.ar    1  UNL1        0.1985
      4 N         138.0798  139.0430  162.7743 N.ar    1  UNL1       -0.2226
      5 C         138.2356  139.9791  161.6126 C.ar    1  UNL1        0.0993
      6 C         137.9186  139.8302  160.1541 C.ar    1  UNL1        0.0207
      7 C         138.1888  140.9627  159.2085 C.ar    1  UNL1        0.0021
      8 C         138.7761  142.2441  159.7213 C.ar    1  UNL1        0.0082
      9 C         139.0932  142.3930  161.1798 C.ar    1  UNL1        0.0518
     10 BR        139.6805  143.6744  161.6927 Br      1  UNL1       -0.0474
     11 C         138.8229  141.2605  162.1255 C.ar    1  UNL1        0.0853
     12 N         139.0301  141.1163  163.6041 N.ar    1  UNL1       -0.3056
     13 C         139.5776  142.0559  164.6372 C.3     1  UNL1        0.1291
     14 C         139.6659  141.6251  166.0713 C.3     1  UNL1        0.1186
     15 N         139.2066  140.2546  166.4723 N.am    1  UNL1       -0.2675
     16 C         139.2949  139.8237  167.9064 C.3     1  UNL1        0.1206
     17 C         140.2861  140.4741  168.8252 C.ar    1  UNL1       -0.0023
     18 C         141.7366  140.0994  168.7499 C.ar    1  UNL1       -0.0026
     19 C         142.7280  140.7498  169.6688 C.ar    1  UNL1       -0.0003
     20 C         142.2688  141.7748  170.6630 C.ar    1  UNL1       -0.0000
     21 C         140.8182  142.1495  170.7383 C.ar    1  UNL1       -0.0003
     22 C         139.8269  141.4991  169.8195 C.ar    1  UNL1       -0.0026
@<TRIPOS>BOND
     1     1     2    2
     2     2     3    1
     3     3     4   ar
     4     4     5   ar
     5     5     6   ar
     6     6     7   ar
     7     7     8   ar
     8     8     9   ar
     9     9    10    1
    10     9    11   ar
    11    11    12   ar
    12    12    13    1
    13    13    14    1
    14    14    15    1
    15    15    16    1
    16    16    17    1
    17    17    18   ar
    18    18    19   ar
    19    19    20   ar
    20    20    21   ar
    21    21    22   ar
    22    15     2   am
    23    22    17   ar
    24    12     3   ar
    25    11     5   ar
@<TRIPOS>MOLECULE
*****
 22 25 0 0 0
SMALL
GASTEIGER

@<TRIPOS>ATOM
      1 O         138.7999  144.8729  165.7222 O.2     1  UNL1       -0.2666
      2 C         139.9050  144.0690  165.1036 C.2     1  UNL1        0.2837
      3 C         140.2476  144.2550  163.6551 C.ar    1  UNL1        0.1985
      4 N         139.6755  145.1491  162.5952 N.ar    1  UNL1       -0.2226
      5 C         140.4270  144.8978  161.3215 C.ar    1  UNL1        0.0993
      6 C         140.3013  145.4889  159.9487 C.ar    1  UNL1        0.0207
      7 C         141.2123  145.0307  158.8486 C.ar    1  UNL1        0.0021
      8 C         142.2488  143.9813  159.1214 C.ar    1  UNL1        0.0082
      9 C         142.3745  143.3902  160.4942 C.ar    1  UNL1        0.0518
     10 BR        143.4110  142.3408  160.7670 Br      1  UNL1       -0.0474
     11 C         141.4636  143.8484  161.5943 C.ar    1  UNL1        0.0853
     12 N         141.3526  143.4512  163.0365 N.ar    1  UNL1       -0.3056
     13 C         142.1152  142.4614  163.8664 C.3     1  UNL1        0.1291
     14 C         141.7726  142.2754  165.3149 C.3     1  UNL1        0.1186
     15 N         140.6675  143.0792  165.9335 N.am    1  UNL1       -0.2675
     16 C         140.3250  142.8932  167.3820 C.3     1  UNL1        0.1206
     17 C         141.1678  142.0000  168.2433 C.ar    1  UNL1       -0.0023
     18 C         140.7487  140.5807  168.4877 C.ar    1  UNL1       -0.0026
     19 C         141.5915  139.6874  169.3490 C.ar    1  UNL1       -0.0003
     20 C         142.8535  140.2136  169.9659 C.ar    1  UNL1       -0.0000
     21 C         143.2726  141.6331  169.7215 C.ar    1  UNL1       -0.0003
     22 C         142.4298  142.5262  168.8602 C.ar    1  UNL1       -0.0026
@<TRIPOS>BOND
     1     1     2    2
     2     2     3    1
     3     3     4   ar
     4     4     5   ar
     5     5     6   ar
     6     6     7   ar
     7     7     8   ar
     8     8     9   ar
     9     9    10    1
    10     9    11   ar
    11    11    12   ar
    12    12    13    1
    13    13    14    1
    14    14    15    1
    15    15    16    1
    16    16    17    1
    17    17    18   ar
    18    18    19   ar
    19    19    20   ar
    20    20    21   ar
    21    21    22   ar
    22    15     2   am
    23    22    17   ar
    24    12     3   ar
    25    11     5   ar
@<TRIPOS>MOLECULE
*****
 22 25 0 0 0
SMALL
GASTEIGER

@<TRIPOS>ATOM
      1 O         139.2845  138.3695  158.2315 O.2     1  UNL1       -0.2666
      2 C         138.9482  139.5134  159.1417 C.2     1  UNL1        0.2837
      3 C         138.8717  139.2950  160.6238 C.ar    1  UNL1        0.1985
      4 N         139.0763  138.0737  161.4703 N.ar    1  UNL1       -0.2226
      5 C         138.8664  138.4627  162.9037 C.ar    1  UNL1        0.0993
      6 C         138.9365  137.6748  164.1781 C.ar    1  UNL1        0.0207
      7 C         138.6723  138.3486  165.4919 C.ar    1  UNL1        0.0021
      8 C         138.3379  139.8103  165.5313 C.ar    1  UNL1        0.0082
      9 C         138.2678  140.5983  164.2569 C.ar    1  UNL1        0.0518
     10 BR        137.9335  142.0600  164.2963 Br      1  UNL1       -0.0474
     11 C         138.5320  139.9245  162.9431 C.ar    1  UNL1        0.0853
     12 N         138.5353  140.4388  161.5340 N.ar    1  UNL1       -0.3056
     13 C         138.2755  141.8010  160.9622 C.3     1  UNL1        0.1291
     14 C         138.3520  142.0193  159.4801 C.3     1  UNL1        0.1186
     15 N         138.6884  140.8755  158.5699 N.am    1  UNL1       -0.2675
     16 C         138.7649  141.0938  157.0878 C.3     1  UNL1        0.1206
     17 C         137.6334  140.6560  156.2058 C.ar    1  UNL1       -0.0023
     18 C         136.2393  141.1371  156.4799 C.ar    1  UNL1       -0.0026
     19 C         135.1077  140.6993  155.5979 C.ar    1  UNL1       -0.0003
     20 C         135.3703  139.7803  154.4418 C.ar    1  UNL1       -0.0000
     21 C         136.7644  139.2992  154.1677 C.ar    1  UNL1       -0.0003
     22 C         137.8959  139.7371  155.0497 C.ar    1  UNL1       -0.0026
@<TRIPOS>BOND
     1     1     2    2
     2     2     3    1
     3     3     4   ar
     4     4     5   ar
     5     5     6   ar
     6     6     7   ar
     7     7     8   ar
     8     8     9   ar
     9     9    10    1
    10     9    11   ar
    11    11    12   ar
    12    12    13    1
    13    13    14    1
    14    14    15    1
    15    15    16    1
    16    16    17    1
    17    17    18   ar
    18    18    19   ar
    19    19    20   ar
    20    20    21   ar
    21    21    22   ar
    22    15     2   am
    23    22    17   ar
    24    12     3   ar
    25    11     5   ar
