@<TRIPOS>MOLECULE
*****
 29 33 0 0 0
SMALL
GASTEIGER

@<TRIPOS>ATOM
      1 C         141.0973  140.8078  165.2962 C.3     1  UNL1        0.0578
      2 C         141.6835  139.5326  164.7671 C.3     1  UNL1        0.0163
      3 C         141.9180  139.7056  163.2958 C.3     1  UNL1        0.0058
      4 C         141.4768  141.0879  162.9155 C.3     1  UNL1        0.0240
      5 C         140.9731  142.4957  162.7955 C.3     1  UNL1        0.0301
      6 C         140.8974  143.3609  161.5725 C.ar    1  UNL1       -0.0255
      7 C         140.3261  144.7108  161.8908 C.ar    1  UNL1       -0.0046
      8 C         140.1642  145.7319  160.8040 C.ar    1  UNL1       -0.0003
      9 C         140.5736  145.4030  159.3989 C.ar    1  UNL1       -0.0003
     10 C         141.1449  144.0531  159.0806 C.ar    1  UNL1       -0.0042
     11 C         141.3068  143.0320  160.1675 C.ar    1  UNL1       -0.0217
     12 C         141.8930  141.7567  159.6384 C.3     1  UNL1        0.0520
     13 C         142.2146  140.4953  160.3836 C.ar    1  UNL1       -0.0218
     14 C         142.7913  139.4524  159.4727 C.ar    1  UNL1       -0.0042
     15 C         143.1828  138.1119  160.0202 C.ar    1  UNL1       -0.0003
     16 C         142.9976  137.8143  161.4786 C.ar    1  UNL1       -0.0003
     17 C         142.4208  138.8572  162.3896 C.ar    1  UNL1       -0.0046
     18 C         142.0293  140.1977  161.8421 C.ar    1  UNL1       -0.0261
     19 C         140.9695  141.7691  164.1519 C.3     1  UNL1        0.0203
     20 C         139.9273  141.6092  169.5670 C.3     1  UNL1        0.1678
     21 F         139.1582  140.9727  170.6865 F       1  UNL1       -0.2342
     22 C         139.4886  140.3423  168.8943 C.3     1  UNL1        0.0554
     23 C         139.8786  140.0752  167.4707 C.3     1  UNL1        0.0752
     24 N         140.7073  141.0749  166.7198 N.3     1  UNL1       -0.2738
     25 C         141.1460  142.3419  167.3926 C.3     1  UNL1        0.0752
     26 C         140.7560  142.6090  168.8161 C.3     1  UNL1        0.0554
     27 O         140.4316  142.2497  172.0338 O.co2   1  UNL1       -0.5465
     28 C         140.0989  142.6551  170.6285 C.2     1  UNL1        0.0798
     29 O         139.9377  144.1062  170.2846 O.co2   1  UNL1       -0.5465
@<TRIPOS>UNITY_ATOM_ATTR
27 1
charge -1
@<TRIPOS>BOND
     1    27    28   ar
     2    28    29   ar
     3    28    20    1
     4    20    21    1
     5    20    22    1
     6    22    23    1
     7    23    24    1
     8    24     1    1
     9     1     2    1
    10     2     3    1
    11     4     3    1
    12     4     5    1
    13     5     6    1
    14     6     7   ar
    15     7     8   ar
    16     8     9   ar
    17     9    10   ar
    18    10    11   ar
    19    11    12    1
    20    12    13    1
    21    13    14   ar
    22    14    15   ar
    23    15    16   ar
    24    16    17   ar
    25    17    18   ar
    26     4    19    1
    27    24    25    1
    28    25    26    1
    29    26    20    1
    30    19     1    1
    31    18     4    1
    32    11     6   ar
    33    18    13   ar
@<TRIPOS>MOLECULE
*****
 29 33 0 0 0
SMALL
GASTEIGER

@<TRIPOS>ATOM
      1 C         141.4954  138.7918  161.2019 C.3     1  UNL1        0.0578
      2 C         142.2817  138.0511  162.2426 C.3     1  UNL1        0.0163
      3 C         142.1496  138.7937  163.5390 C.3     1  UNL1        0.0058
      4 C         141.2817  139.9934  163.2996 C.3     1  UNL1        0.0240
      5 C         140.4021  141.1041  162.8068 C.3     1  UNL1        0.0301
      6 C         139.8426  142.2649  163.5746 C.ar    1  UNL1       -0.0255
      7 C         139.0063  143.1495  162.6983 C.ar    1  UNL1       -0.0046
      8 C         138.3519  144.3711  163.2724 C.ar    1  UNL1       -0.0003
      9 C         138.5338  144.7080  164.7227 C.ar    1  UNL1       -0.0003
     10 C         139.3701  143.8233  165.5990 C.ar    1  UNL1       -0.0042
     11 C         140.0245  142.6018  165.0250 C.ar    1  UNL1       -0.0217
     12 C         140.8108  141.8610  166.0656 C.3     1  UNL1        0.0520
     13 C         141.6095  140.6005  165.9131 C.ar    1  UNL1       -0.0218
     14 C         142.2446  140.1938  167.2097 C.ar    1  UNL1       -0.0042
     15 C         143.0893  138.9559  167.2753 C.ar    1  UNL1       -0.0003
     16 C         143.2988  138.1248  166.0444 C.ar    1  UNL1       -0.0003
     17 C         142.6637  138.5315  164.7477 C.ar    1  UNL1       -0.0046
     18 C         141.8190  139.7694  164.6821 C.ar    1  UNL1       -0.0261
     19 C         140.8773  139.9923  161.8552 C.3     1  UNL1        0.0203
     20 C         141.0661  137.6185  156.8788 C.3     1  UNL1        0.1678
     21 F         141.8929  137.0913  155.7436 F       1  UNL1       -0.2342
     22 C         142.3993  137.5074  157.5572 C.3     1  UNL1        0.0554
     23 C         142.5424  137.8985  158.9982 C.3     1  UNL1        0.0752
     24 N         141.3523  138.4007  159.7609 N.3     1  UNL1       -0.2738
     25 C         140.0191  138.5117  159.0824 C.3     1  UNL1        0.0752
     26 C         139.8760  138.1206  157.6414 C.3     1  UNL1        0.0554
     27 O         138.6878  136.9222  156.0985 O.co2   1  UNL1       -0.5465
     28 C         140.0200  137.5465  155.8061 C.2     1  UNL1        0.0798
     29 O         140.3063  138.0987  154.4411 O.co2   1  UNL1       -0.5465
@<TRIPOS>UNITY_ATOM_ATTR
27 1
charge -1
@<TRIPOS>BOND
     1    27    28   ar
     2    28    29   ar
     3    28    20    1
     4    20    21    1
     5    20    22    1
     6    22    23    1
     7    23    24    1
     8    24     1    1
     9     1     2    1
    10     2     3    1
    11     4     3    1
    12     4     5    1
    13     5     6    1
    14     6     7   ar
    15     7     8   ar
    16     8     9   ar
    17     9    10   ar
    18    10    11   ar
    19    11    12    1
    20    12    13    1
    21    13    14   ar
    22    14    15   ar
    23    15    16   ar
    24    16    17   ar
    25    17    18   ar
    26     4    19    1
    27    24    25    1
    28    25    26    1
    29    26    20    1
    30    19     1    1
    31    18     4    1
    32    11     6   ar
    33    18    13   ar
@<TRIPOS>MOLECULE
*****
 29 33 0 0 0
SMALL
GASTEIGER

@<TRIPOS>ATOM
      1 C         140.4307  142.3124  165.2758 C.3     1  UNL1        0.0578
      2 C         140.1041  143.6571  164.6972 C.3     1  UNL1        0.0163
      3 C         140.3748  143.6054  163.2228 C.3     1  UNL1        0.0058
      4 C         140.8686  142.2287  162.8902 C.3     1  UNL1        0.0240
      5 C         141.3324  140.8039  162.8203 C.3     1  UNL1        0.0301
      6 C         141.7860  140.0256  161.6209 C.ar    1  UNL1       -0.0255
      7 C         142.1672  138.6226  161.9901 C.ar    1  UNL1       -0.0046
      8 C         142.6502  137.6740  160.9334 C.ar    1  UNL1       -0.0003
      9 C         142.7520  138.1283  159.5075 C.ar    1  UNL1       -0.0003
     10 C         142.3709  139.5313  159.1383 C.ar    1  UNL1       -0.0042
     11 C         141.8879  140.4799  160.1950 C.ar    1  UNL1       -0.0217
     12 C         141.5612  141.8248  159.6164 C.3     1  UNL1        0.0520
     13 C         141.0521  143.0474  160.3207 C.ar    1  UNL1       -0.0218
     14 C         140.8552  144.1876  159.3662 C.ar    1  UNL1       -0.0042
     15 C         140.3500  145.5076  159.8687 C.ar    1  UNL1       -0.0003
     16 C         140.0418  145.6874  161.3256 C.ar    1  UNL1       -0.0003
     17 C         140.2387  144.5471  162.2801 C.ar    1  UNL1       -0.0046
     18 C         140.7439  143.2271  161.7777 C.ar    1  UNL1       -0.0261
     19 C         140.9032  141.4295  164.1590 C.3     1  UNL1        0.0203
     20 C         140.0584  141.1334  169.6027 C.3     1  UNL1        0.1678
     21 F         139.5834  139.9863  170.4444 F       1  UNL1       -0.2342
     22 C         139.6085  140.1899  168.5269 C.3     1  UNL1        0.0554
     23 C         139.7326  140.5828  167.0846 C.3     1  UNL1        0.0752
     24 N         140.3066  141.9194  166.7181 N.3     1  UNL1       -0.2738
     25 C         140.7565  142.8629  167.7940 C.3     1  UNL1        0.0752
     26 C         140.6324  142.4700  169.2362 C.3     1  UNL1        0.0554
     27 O         141.3715  141.0194  171.8417 O.co2   1  UNL1       -0.5465
     28 C         140.3433  141.6786  170.9708 C.2     1  UNL1        0.0798
     29 O         139.6000  142.8829  171.4680 O.co2   1  UNL1       -0.5465
@<TRIPOS>UNITY_ATOM_ATTR
27 1
charge -1
@<TRIPOS>BOND
     1    27    28   ar
     2    28    29   ar
     3    28    20    1
     4    20    21    1
     5    20    22    1
     6    22    23    1
     7    23    24    1
     8    24     1    1
     9     1     2    1
    10     2     3    1
    11     4     3    1
    12     4     5    1
    13     5     6    1
    14     6     7   ar
    15     7     8   ar
    16     8     9   ar
    17     9    10   ar
    18    10    11   ar
    19    11    12    1
    20    12    13    1
    21    13    14   ar
    22    14    15   ar
    23    15    16   ar
    24    16    17   ar
    25    17    18   ar
    26     4    19    1
    27    24    25    1
    28    25    26    1
    29    26    20    1
    30    19     1    1
    31    18     4    1
    32    11     6   ar
    33    18    13   ar
@<TRIPOS>MOLECULE
*****
 29 33 0 0 0
SMALL
GASTEIGER

@<TRIPOS>ATOM
      1 C         140.7191  138.7195  161.4624 C.3     1  UNL1        0.0578
      2 C         139.6213  138.1736  162.3264 C.3     1  UNL1        0.0163
      3 C         139.7591  138.7817  163.6905 C.3     1  UNL1        0.0058
      4 C         140.9423  139.7036  163.6696 C.3     1  UNL1        0.0240
      5 C         142.1492  140.5498  163.3918 C.3     1  UNL1        0.0301
      6 C         142.8827  141.4678  164.3243 C.ar    1  UNL1       -0.0255
      7 C         144.0431  142.1293  163.6418 C.ar    1  UNL1       -0.0046
      8 C         144.9112  143.0891  164.4001 C.ar    1  UNL1       -0.0003
      9 C         144.6190  143.3874  165.8408 C.ar    1  UNL1       -0.0003
     10 C         143.4585  142.7259  166.5232 C.ar    1  UNL1       -0.0042
     11 C         142.5904  141.7660  165.7650 C.ar    1  UNL1       -0.0217
     12 C         141.4924  141.2201  166.6289 C.3     1  UNL1        0.0520
     13 C         140.4156  140.2411  166.2658 C.ar    1  UNL1       -0.0218
     14 C         139.5143  139.9602  167.4314 C.ar    1  UNL1       -0.0042
     15 C         138.3682  139.0044  167.2801 C.ar    1  UNL1       -0.0003
     16 C         138.1234  138.3295  165.9631 C.ar    1  UNL1       -0.0003
     17 C         139.0247  138.6104  164.7974 C.ar    1  UNL1       -0.0046
     18 C         140.1708  139.5662  164.9487 C.ar    1  UNL1       -0.0261
     19 C         141.5356  139.6651  162.2925 C.3     1  UNL1        0.0203
     20 C         141.4374  137.6995  157.1387 C.3     1  UNL1        0.1678
     21 F         140.6889  137.5949  155.8431 F       1  UNL1       -0.2342
     22 C         140.0620  138.0795  157.6011 C.3     1  UNL1        0.0554
     23 C         139.8226  138.4195  159.0424 C.3     1  UNL1        0.0752
     24 N         140.9586  138.3795  160.0212 N.3     1  UNL1       -0.2738
     25 C         142.3340  137.9994  159.5587 C.3     1  UNL1        0.0752
     26 C         142.5734  137.6594  158.1175 C.3     1  UNL1        0.0554
     27 O         143.9160  137.8893  156.3831 O.co2   1  UNL1       -0.5465
     28 C         142.5529  137.2831  156.2263 C.2     1  UNL1        0.0798
     29 O         142.3052  136.2606  155.1571 O.co2   1  UNL1       -0.5465
@<TRIPOS>UNITY_ATOM_ATTR
27 1
charge -1
@<TRIPOS>BOND
     1    27    28   ar
     2    28    29   ar
     3    28    20    1
     4    20    21    1
     5    20    22    1
     6    22    23    1
     7    23    24    1
     8    24     1    1
     9     1     2    1
    10     2     3    1
    11     4     3    1
    12     4     5    1
    13     5     6    1
    14     6     7   ar
    15     7     8   ar
    16     8     9   ar
    17     9    10   ar
    18    10    11   ar
    19    11    12    1
    20    12    13    1
    21    13    14   ar
    22    14    15   ar
    23    15    16   ar
    24    16    17   ar
    25    17    18   ar
    26     4    19    1
    27    24    25    1
    28    25    26    1
    29    26    20    1
    30    19     1    1
    31    18     4    1
    32    11     6   ar
    33    18    13   ar
@<TRIPOS>MOLECULE
*****
 29 33 0 0 0
SMALL
GASTEIGER

@<TRIPOS>ATOM
      1 C         142.7215  139.4749  161.4738 C.3     1  UNL1        0.0578
      2 C         143.3095  138.6292  162.5640 C.3     1  UNL1        0.0163
      3 C         142.8771  139.2035  163.8805 C.3     1  UNL1        0.0058
      4 C         142.0218  140.4043  163.6038 C.3     1  UNL1        0.0240
      5 C         141.2118  141.5476  163.0684 C.3     1  UNL1        0.0301
      6 C         140.4514  142.5926  163.8298 C.ar    1  UNL1       -0.0255
      7 C         139.7737  143.5599  162.9052 C.ar    1  UNL1       -0.0046
      8 C         138.9577  144.6869  163.4656 C.ar    1  UNL1       -0.0003
      9 C         138.8195  144.8466  164.9507 C.ar    1  UNL1       -0.0003
     10 C         139.4973  143.8793  165.8753 C.ar    1  UNL1       -0.0042
     11 C         140.3132  142.7523  165.3149 C.ar    1  UNL1       -0.0217
     12 C         140.9013  141.9065  166.4052 C.3     1  UNL1        0.0520
     13 C         141.7728  140.6921  166.2798 C.ar    1  UNL1       -0.0218
     14 C         142.1444  140.1429  167.6253 C.ar    1  UNL1       -0.0042
     15 C         143.0147  138.9252  167.7240 C.ar    1  UNL1       -0.0003
     16 C         143.5134  138.2567  166.4773 C.ar    1  UNL1       -0.0003
     17 C         143.1418  138.8059  165.1318 C.ar    1  UNL1       -0.0046
     18 C         142.2715  140.0236  165.0330 C.ar    1  UNL1       -0.0261
     19 C         141.9256  140.5721  162.1163 C.3     1  UNL1        0.0203
     20 C         143.2517  138.8335  157.0513 C.3     1  UNL1        0.1678
     21 F         143.6131  139.6008  155.8141 F       1  UNL1       -0.2342
     22 C         143.4679  140.1949  157.6430 C.3     1  UNL1        0.0554
     23 C         143.2911  140.4087  159.1171 C.3     1  UNL1        0.0752
     24 N         142.8982  139.2611  159.9996 N.3     1  UNL1       -0.2738
     25 C         142.6821  137.8998  159.4079 C.3     1  UNL1        0.0752
     26 C         142.8588  137.6860  157.9339 C.3     1  UNL1        0.0554
     27 O         141.8629  137.4752  155.3261 O.co2   1  UNL1       -0.5465
     28 C         143.1611  137.7386  156.0300 C.2     1  UNL1        0.0798
     29 O         144.3686  136.9072  155.7126 O.co2   1  UNL1       -0.5465
@<TRIPOS>UNITY_ATOM_ATTR
27 1
charge -1
@<TRIPOS>BOND
     1    27    28   ar
     2    28    29   ar
     3    28    20    1
     4    20    21    1
     5    20    22    1
     6    22    23    1
     7    23    24    1
     8    24     1    1
     9     1     2    1
    10     2     3    1
    11     4     3    1
    12     4     5    1
    13     5     6    1
    14     6     7   ar
    15     7     8   ar
    16     8     9   ar
    17     9    10   ar
    18    10    11   ar
    19    11    12    1
    20    12    13    1
    21    13    14   ar
    22    14    15   ar
    23    15    16   ar
    24    16    17   ar
    25    17    18   ar
    26     4    19    1
    27    24    25    1
    28    25    26    1
    29    26    20    1
    30    19     1    1
    31    18     4    1
    32    11     6   ar
    33    18    13   ar
@<TRIPOS>MOLECULE
*****
 29 33 0 0 0
SMALL
GASTEIGER

@<TRIPOS>ATOM
      1 C         143.6212  140.8724  161.3745 C.3     1  UNL1        0.0578
      2 C         144.1483  139.8191  162.3031 C.3     1  UNL1        0.0163
      3 C         143.4809  139.9984  163.6343 C.3     1  UNL1        0.0058
      4 C         142.5411  141.1627  163.5284 C.3     1  UNL1        0.0240
      5 C         141.6872  142.3422  163.1682 C.3     1  UNL1        0.0301
      6 C         140.7185  143.0943  164.0320 C.ar    1  UNL1       -0.0255
      7 C         140.0671  144.2150  163.2774 C.ar    1  UNL1       -0.0046
      8 C         139.0617  145.0941  163.9603 C.ar    1  UNL1       -0.0003
      9 C         138.7077  144.8524  165.3977 C.ar    1  UNL1       -0.0003
     10 C         139.3591  143.7316  166.1523 C.ar    1  UNL1       -0.0042
     11 C         140.3645  142.8526  165.4695 C.ar    1  UNL1       -0.0217
     12 C         140.8918  141.7991  166.3981 C.3     1  UNL1        0.0520
     13 C         141.9032  140.7272  166.1187 C.ar    1  UNL1       -0.0218
     14 C         142.1496  139.8771  167.3296 C.ar    1  UNL1       -0.0042
     15 C         143.1300  138.7437  167.2635 C.ar    1  UNL1       -0.0003
     16 C         143.8640  138.4605  165.9865 C.ar    1  UNL1       -0.0003
     17 C         143.6176  139.3107  164.7754 C.ar    1  UNL1       -0.0046
     18 C         142.6372  140.4440  164.8415 C.ar    1  UNL1       -0.0261
     19 C         142.6278  141.7029  162.1318 C.3     1  UNL1        0.0203
     20 C         144.8108  141.4414  157.0720 C.3     1  UNL1        0.1678
     21 F         145.4119  142.4816  156.1739 F       1  UNL1       -0.2342
     22 C         145.0132  142.5524  158.0593 C.3     1  UNL1        0.0554
     23 C         144.6166  142.3627  159.4935 C.3     1  UNL1        0.0752
     24 N         144.0177  141.0621  159.9403 N.3     1  UNL1       -0.2738
     25 C         143.8154  139.9511  158.9529 C.3     1  UNL1        0.0752
     26 C         144.2119  140.1407  157.5189 C.3     1  UNL1        0.0554
     27 O         144.3185  141.3535  154.5225 O.co2   1  UNL1       -0.5465
     28 C         144.8172  140.6917  155.7728 C.2     1  UNL1        0.0798
     29 O         145.3224  139.2801  155.7240 O.co2   1  UNL1       -0.5465
@<TRIPOS>UNITY_ATOM_ATTR
27 1
charge -1
@<TRIPOS>BOND
     1    27    28   ar
     2    28    29   ar
     3    28    20    1
     4    20    21    1
     5    20    22    1
     6    22    23    1
     7    23    24    1
     8    24     1    1
     9     1     2    1
    10     2     3    1
    11     4     3    1
    12     4     5    1
    13     5     6    1
    14     6     7   ar
    15     7     8   ar
    16     8     9   ar
    17     9    10   ar
    18    10    11   ar
    19    11    12    1
    20    12    13    1
    21    13    14   ar
    22    14    15   ar
    23    15    16   ar
    24    16    17   ar
    25    17    18   ar
    26     4    19    1
    27    24    25    1
    28    25    26    1
    29    26    20    1
    30    19     1    1
    31    18     4    1
    32    11     6   ar
    33    18    13   ar
@<TRIPOS>MOLECULE
*****
 29 33 0 0 0
SMALL
GASTEIGER

@<TRIPOS>ATOM
      1 C         142.3483  142.1032  165.6030 C.3     1  UNL1        0.0578
      2 C         143.4370  142.7449  164.7951 C.3     1  UNL1        0.0163
      3 C         143.2884  142.2907  163.3733 C.3     1  UNL1        0.0058
      4 C         142.1077  141.3682  163.3025 C.3     1  UNL1        0.0240
      5 C         140.9054  140.4923  163.4956 C.3     1  UNL1        0.0301
      6 C         140.1658  139.6805  162.4739 C.ar    1  UNL1       -0.0255
      7 C         139.0132  138.9437  163.0891 C.ar    1  UNL1       -0.0046
      8 C         138.1406  138.0705  162.2370 C.ar    1  UNL1       -0.0003
      9 C         138.4206  137.9342  160.7697 C.ar    1  UNL1       -0.0003
     10 C         139.5732  138.6710  160.1544 C.ar    1  UNL1       -0.0042
     11 C         140.4458  139.5441  161.0065 C.ar    1  UNL1       -0.0217
     12 C         141.5346  140.1859  160.1987 C.3     1  UNL1        0.0520
     13 C         142.6123  141.1225  160.6584 C.ar    1  UNL1       -0.0218
     14 C         143.5024  141.5335  159.5232 C.ar    1  UNL1       -0.0042
     15 C         144.6475  142.4706  159.7693 C.ar    1  UNL1       -0.0003
     16 C         144.9025  142.9968  161.1506 C.ar    1  UNL1       -0.0003
     17 C         144.0124  142.5858  162.2859 C.ar    1  UNL1       -0.0046
     18 C         142.8673  141.6486  162.0398 C.ar    1  UNL1       -0.0261
     19 C         141.5267  141.2523  164.6805 C.3     1  UNL1        0.0203
     20 C         141.6664  142.6369  170.0189 C.3     1  UNL1        0.1678
     21 F         142.4330  142.6373  171.3082 F       1  UNL1       -0.2342
     22 C         143.0476  142.3648  169.5008 C.3     1  UNL1        0.0554
     23 C         143.2748  142.1869  168.0288 C.3     1  UNL1        0.0752
     24 N         142.1210  142.2811  167.0750 N.3     1  UNL1       -0.2738
     25 C         140.7399  142.5533  167.5932 C.3     1  UNL1        0.0752
     26 C         140.5126  142.7312  169.0650 C.3     1  UNL1        0.0554
     27 O         139.5705  144.0094  170.7070 O.co2   1  UNL1       -0.5465
     28 C         140.5515  142.9092  170.9848 C.2     1  UNL1        0.0798
     29 O         140.4178  142.0813  172.2285 O.co2   1  UNL1       -0.5465
@<TRIPOS>UNITY_ATOM_ATTR
27 1
charge -1
@<TRIPOS>BOND
     1    27    28   ar
     2    28    29   ar
     3    28    20    1
     4    20    21    1
     5    20    22    1
     6    22    23    1
     7    23    24    1
     8    24     1    1
     9     1     2    1
    10     2     3    1
    11     4     3    1
    12     4     5    1
    13     5     6    1
    14     6     7   ar
    15     7     8   ar
    16     8     9   ar
    17     9    10   ar
    18    10    11   ar
    19    11    12    1
    20    12    13    1
    21    13    14   ar
    22    14    15   ar
    23    15    16   ar
    24    16    17   ar
    25    17    18   ar
    26     4    19    1
    27    24    25    1
    28    25    26    1
    29    26    20    1
    30    19     1    1
    31    18     4    1
    32    11     6   ar
    33    18    13   ar
@<TRIPOS>MOLECULE
*****
 29 33 0 0 0
SMALL
GASTEIGER

@<TRIPOS>ATOM
      1 C         139.7618  141.1112  165.2306 C.3     1  UNL1        0.0578
      2 C         138.5614  140.6258  164.4735 C.3     1  UNL1        0.0163
      3 C         138.8980  140.6411  163.0119 C.3     1  UNL1        0.0058
      4 C         140.3065  141.1359  162.8657 C.3     1  UNL1        0.0240
      5 C         141.7109  141.6486  162.9878 C.3     1  UNL1        0.0301
      6 C         142.7034  141.9260  161.8978 C.ar    1  UNL1       -0.0255
      7 C         144.0013  142.4318  162.4542 C.ar    1  UNL1       -0.0046
      8 C         145.1324  142.7709  161.5292 C.ar    1  UNL1       -0.0003
      9 C         144.9656  142.6040  160.0479 C.ar    1  UNL1       -0.0003
     10 C         143.6677  142.0982  159.4915 C.ar    1  UNL1       -0.0042
     11 C         142.5366  141.7591  160.4165 C.ar    1  UNL1       -0.0217
     12 C         141.3362  141.2737  159.6593 C.3     1  UNL1        0.0520
     13 C         140.0060  140.8353  160.1963 C.ar    1  UNL1       -0.0218
     14 C         139.0782  140.4226  159.0924 C.ar    1  UNL1       -0.0042
     15 C         137.6922  139.9487  159.4153 C.ar    1  UNL1       -0.0003
     16 C         137.2340  139.8873  160.8422 C.ar    1  UNL1       -0.0003
     17 C         138.1618  140.2999  161.9463 C.ar    1  UNL1       -0.0046
     18 C         139.5478  140.7739  161.6234 C.ar    1  UNL1       -0.0261
     19 C         140.8404  141.4265  164.2370 C.3     1  UNL1        0.0203
     20 C         140.0729  141.5455  169.6989 C.3     1  UNL1        0.1678
     21 F         139.8346  140.7528  170.9498 F       1  UNL1       -0.2342
     22 C         139.5930  140.2556  169.1023 C.3     1  UNL1        0.0554
     23 C         139.4893  140.1108  167.6129 C.3     1  UNL1        0.0752
     24 N         139.8655  141.2560  166.7200 N.3     1  UNL1       -0.2738
     25 C         140.3454  142.5459  167.3167 C.3     1  UNL1        0.0752
     26 C         140.4490  142.6907  168.8060 C.3     1  UNL1        0.0554
     27 O         140.6156  142.1525  172.1661 O.co2   1  UNL1       -0.5465
     28 C         140.4700  142.5601  170.7299 C.2     1  UNL1        0.0798
     29 O         140.7215  143.9823  170.3246 O.co2   1  UNL1       -0.5465
@<TRIPOS>UNITY_ATOM_ATTR
27 1
charge -1
@<TRIPOS>BOND
     1    27    28   ar
     2    28    29   ar
     3    28    20    1
     4    20    21    1
     5    20    22    1
     6    22    23    1
     7    23    24    1
     8    24     1    1
     9     1     2    1
    10     2     3    1
    11     4     3    1
    12     4     5    1
    13     5     6    1
    14     6     7   ar
    15     7     8   ar
    16     8     9   ar
    17     9    10   ar
    18    10    11   ar
    19    11    12    1
    20    12    13    1
    21    13    14   ar
    22    14    15   ar
    23    15    16   ar
    24    16    17   ar
    25    17    18   ar
    26     4    19    1
    27    24    25    1
    28    25    26    1
    29    26    20    1
    30    19     1    1
    31    18     4    1
    32    11     6   ar
    33    18    13   ar
@<TRIPOS>MOLECULE
*****
 29 33 0 0 0
SMALL
GASTEIGER

@<TRIPOS>ATOM
      1 C         140.2829  141.7721  160.9844 C.3     1  UNL1        0.0578
      2 C         141.5572  142.5511  161.1226 C.3     1  UNL1        0.0163
      3 C         141.9705  142.5119  162.5639 C.3     1  UNL1        0.0058
      4 C         140.9516  141.7086  163.3166 C.3     1  UNL1        0.0240
      5 C         139.8125  140.8789  163.8303 C.3     1  UNL1        0.0301
      6 C         139.5489  140.4185  165.2333 C.ar    1  UNL1       -0.0255
      7 C         138.2919  139.6042  165.3159 C.ar    1  UNL1       -0.0046
      8 C         137.8454  139.0455  166.6344 C.ar    1  UNL1       -0.0003
      9 C         138.6561  139.3011  167.8704 C.ar    1  UNL1       -0.0003
     10 C         139.9131  140.1153  167.7878 C.ar    1  UNL1       -0.0042
     11 C         140.3595  140.6740  166.4693 C.ar    1  UNL1       -0.0217
     12 C         141.6338  141.4531  166.6074 C.3     1  UNL1        0.0520
     13 C         142.4124  142.1691  165.5438 C.ar    1  UNL1       -0.0218
     14 C         143.6361  142.8268  166.1092 C.ar    1  UNL1       -0.0042
     15 C         144.5563  143.5981  165.2102 C.ar    1  UNL1       -0.0003
     16 C         144.2527  143.7118  163.7457 C.ar    1  UNL1       -0.0003
     17 C         143.0289  143.0541  163.1802 C.ar    1  UNL1       -0.0046
     18 C         142.1087  142.2827  164.0792 C.ar    1  UNL1       -0.0261
     19 C         139.9086  141.2513  162.3404 C.3     1  UNL1        0.0203
     20 C         137.9859  141.1129  157.1714 C.3     1  UNL1        0.1678
     21 F         137.7954  140.0699  156.1103 F       1  UNL1       -0.2342
     22 C         138.9024  140.0442  157.6891 C.3     1  UNL1        0.0554
     23 C         139.6681  140.2640  158.9601 C.3     1  UNL1        0.0752
     24 N         139.5172  141.5523  159.7134 N.3     1  UNL1       -0.2738
     25 C         138.6007  142.6210  159.1956 C.3     1  UNL1        0.0752
     26 C         137.8351  142.4012  157.9246 C.3     1  UNL1        0.0554
     27 O         137.0955  143.3046  156.0973 O.co2   1  UNL1       -0.5465
     28 C         137.0032  141.8193  156.2851 C.2     1  UNL1        0.0798
     29 O         135.9283  141.0402  155.5866 O.co2   1  UNL1       -0.5465
@<TRIPOS>UNITY_ATOM_ATTR
27 1
charge -1
@<TRIPOS>BOND
     1    27    28   ar
     2    28    29   ar
     3    28    20    1
     4    20    21    1
     5    20    22    1
     6    22    23    1
     7    23    24    1
     8    24     1    1
     9     1     2    1
    10     2     3    1
    11     4     3    1
    12     4     5    1
    13     5     6    1
    14     6     7   ar
    15     7     8   ar
    16     8     9   ar
    17     9    10   ar
    18    10    11   ar
    19    11    12    1
    20    12    13    1
    21    13    14   ar
    22    14    15   ar
    23    15    16   ar
    24    16    17   ar
    25    17    18   ar
    26     4    19    1
    27    24    25    1
    28    25    26    1
    29    26    20    1
    30    19     1    1
    31    18     4    1
    32    11     6   ar
    33    18    13   ar
