@<TRIPOS>MOLECULE
*****
 38 41 0 0 0
SMALL
GASTEIGER

@<TRIPOS>ATOM
      1 C         143.5356  139.0660  162.2859 C.3     1  UNL1        0.1693
      2 C         144.1073  139.0462  160.8993 C.3     1  UNL1        0.0650
      3 C         143.2042  138.8452  159.7185 C.3     1  UNL1        0.0971
      4 N         141.7296  138.6640  159.9245 N.am    1  UNL1       -0.2790
      5 C         140.8266  138.4630  158.7437 C.2     1  UNL1        0.2301
      6 O         139.3518  138.2819  158.9496 O.2     1  UNL1       -0.2745
      7 C         141.1579  138.6838  161.3111 C.3     1  UNL1        0.0971
      8 C         142.0609  138.8848  162.4918 C.3     1  UNL1        0.0650
      9 O         144.4386  139.2669  163.4667 O.3     1  UNL1       -0.4789
     10 C         142.8698  141.2547  167.1865 C.ar    1  UNL1        0.0034
     11 C         142.7557  139.7678  167.0257 C.ar    1  UNL1        0.0032
     12 C         143.2786  139.1052  165.7858 C.ar    1  UNL1        0.0370
     13 C         143.9157  139.9296  164.7067 C.ar    1  UNL1        0.1427
     14 C         144.0298  141.4165  164.8674 C.ar    1  UNL1        0.0870
     15 C         143.5069  142.0791  166.1074 C.ar    1  UNL1        0.0077
     16 C         139.5899  143.1813  170.8487 C.3     1  UNL1        0.1538
     17 N         140.8392  142.8029  170.1098 N.ar    1  UNL1       -0.2473
     18 C         140.9022  142.0898  168.7917 C.ar    1  UNL1        0.0967
     19 C         142.3468  141.9174  168.4265 C.ar    1  UNL1        0.0396
     20 C         143.1767  142.5238  169.5190 C.ar    1  UNL1        0.1216
     21 N         142.2449  143.0711  170.5593 N.ar    1  UNL1       -0.1676
     22 C         144.6669  142.2409  163.7883 C.2     1  UNL1        0.2457
     23 N         146.0471  141.9068  163.3054 N.am    1  UNL1       -0.3252
     24 O         143.9237  143.3994  163.1921 O.2     1  UNL1       -0.2703
     25 H         146.5349  141.1465  163.6967 H       1  UNL1        0.1453
     26 H         146.4652  142.4479  162.5971 H       1  UNL1        0.1453
     27 C         141.3982  138.4432  157.3571 C.3     1  UNL1        0.1116
     28 C         141.7432  137.1363  156.7067 C.ar    1  UNL1       -0.0129
     29 C         140.8245  136.5443  155.6793 C.ar    1  UNL1       -0.0007
     30 C         141.1695  135.2374  155.0289 C.ar    1  UNL1        0.0369
     31 C         142.4331  134.5226  155.4059 C.ar    1  UNL1        0.1468
     32 C         143.3519  135.1146  156.4332 C.ar    1  UNL1        0.0369
     33 C         143.0069  136.4215  157.0836 C.ar    1  UNL1       -0.0007
     34 O         142.7781  133.2156  154.7555 O.3     1  UNL1       -0.4045
     35 C         142.9524  131.9838  155.5935 C.3     1  UNL1        0.5753
     36 F         143.1267  130.7520  156.4315 F       1  UNL1       -0.1328
     37 F         141.4650  131.8881  155.7621 F       1  UNL1       -0.1328
     38 F         144.4398  132.0795  155.4249 F       1  UNL1       -0.1328
@<TRIPOS>BOND
     1    16    17    1
     2    17    18   ar
     3    18    19   ar
     4    19    10    1
     5    10    11   ar
     6    11    12   ar
     7    12    13   ar
     8    13     9    1
     9     9     1    1
    10     1     2    1
    11     2     3    1
    12     3     4    1
    13     4     5   am
    14     5     6    2
    15     5    27    1
    16    27    28    1
    17    28    29   ar
    18    29    30   ar
    19    30    31   ar
    20    31    34    1
    21    34    35    1
    22    35    36    1
    23    35    37    1
    24    35    38    1
    25    31    32   ar
    26    32    33   ar
    27     4     7    1
    28     7     8    1
    29    13    14   ar
    30    14    22    1
    31    22    23   am
    32    22    24    2
    33    14    15   ar
    34    19    20   ar
    35    20    21   ar
    36    21    17   ar
    37    15    10   ar
    38     8     1    1
    39    33    28   ar
    40    23    25    1
    41    23    26    1
@<TRIPOS>MOLECULE
*****
 38 41 0 0 0
SMALL
GASTEIGER

@<TRIPOS>ATOM
      1 C         140.1363  139.4956  160.9711 C.3     1  UNL1        0.1693
      2 C         139.9137  140.5729  161.9908 C.3     1  UNL1        0.0650
      3 C         139.4339  140.2158  163.3665 C.3     1  UNL1        0.0971
      4 N         139.1768  138.7815  163.7223 N.am    1  UNL1       -0.2790
      5 C         138.6970  138.4245  165.0979 C.2     1  UNL1        0.2301
      6 O         138.4398  136.9901  165.4538 O.2     1  UNL1       -0.2745
      7 C         139.3994  137.7042  162.7026 C.3     1  UNL1        0.0971
      8 C         139.8791  138.0612  161.3270 C.3     1  UNL1        0.0650
      9 O         140.6161  139.8526  159.5955 O.3     1  UNL1       -0.4789
     10 C         141.5589  136.6040  156.6277 C.ar    1  UNL1        0.0034
     11 C         140.2400  137.3157  156.5668 C.ar    1  UNL1        0.0032
     12 C         139.9257  138.3985  157.5561 C.ar    1  UNL1        0.0370
     13 C         140.9304  138.7697  158.6062 C.ar    1  UNL1        0.1427
     14 C         142.2494  138.0580  158.6671 C.ar    1  UNL1        0.0870
     15 C         142.5637  136.9752  157.6778 C.ar    1  UNL1        0.0077
     16 C         143.1124  132.0131  154.5321 C.3     1  UNL1        0.1538
     17 N         142.5873  133.4109  154.6752 N.ar    1  UNL1       -0.2473
     18 C         142.4307  134.1665  155.9615 C.ar    1  UNL1        0.0967
     19 C         141.8733  135.5211  155.6384 C.ar    1  UNL1        0.0396
     20 C         141.6854  135.6027  154.1525 C.ar    1  UNL1        0.1216
     21 N         142.1267  134.2985  153.5572 N.ar    1  UNL1       -0.1676
     22 C         143.2541  138.4292  159.7172 C.2     1  UNL1        0.2457
     23 N         143.3991  137.5846  160.9483 N.am    1  UNL1       -0.3252
     24 O         144.1138  139.6449  159.5363 O.2     1  UNL1       -0.2703
     25 H         142.8348  136.7867  161.0671 H       1  UNL1        0.1453
     26 H         144.0585  137.8283  161.6375 H       1  UNL1        0.1453
     27 C         138.4744  139.5017  166.1177 C.3     1  UNL1        0.1116
     28 C         139.5607  139.8478  167.0925 C.ar    1  UNL1       -0.0129
     29 C         139.2328  140.0410  168.5434 C.ar    1  UNL1       -0.0007
     30 C         140.3190  140.3870  169.5182 C.ar    1  UNL1        0.0369
     31 C         141.7332  140.5398  169.0421 C.ar    1  UNL1        0.1468
     32 C         142.0611  140.3465  167.5912 C.ar    1  UNL1        0.0369
     33 C         140.9749  140.0005  166.6164 C.ar    1  UNL1       -0.0007
     34 O         142.8196  140.8858  170.0169 O.3     1  UNL1       -0.4045
     35 C         143.0405  142.3143  170.4177 C.3     1  UNL1        0.5753
     36 F         143.2615  143.7427  170.8184 F       1  UNL1       -0.1328
     37 F         142.0724  142.1461  171.5510 F       1  UNL1       -0.1328
     38 F         144.0087  142.4824  169.2844 F       1  UNL1       -0.1328
@<TRIPOS>BOND
     1    16    17    1
     2    17    18   ar
     3    18    19   ar
     4    19    10    1
     5    10    11   ar
     6    11    12   ar
     7    12    13   ar
     8    13     9    1
     9     9     1    1
    10     1     2    1
    11     2     3    1
    12     3     4    1
    13     4     5   am
    14     5     6    2
    15     5    27    1
    16    27    28    1
    17    28    29   ar
    18    29    30   ar
    19    30    31   ar
    20    31    34    1
    21    34    35    1
    22    35    36    1
    23    35    37    1
    24    35    38    1
    25    31    32   ar
    26    32    33   ar
    27     4     7    1
    28     7     8    1
    29    13    14   ar
    30    14    22    1
    31    22    23   am
    32    22    24    2
    33    14    15   ar
    34    19    20   ar
    35    20    21   ar
    36    21    17   ar
    37    15    10   ar
    38     8     1    1
    39    33    28   ar
    40    23    25    1
    41    23    26    1
@<TRIPOS>MOLECULE
*****
 38 41 0 0 0
SMALL
GASTEIGER

@<TRIPOS>ATOM
      1 C         141.8052  144.6081  161.1841 C.3     1  UNL1        0.1693
      2 C         141.5916  144.9444  162.6303 C.3     1  UNL1        0.0650
      3 C         142.4538  144.3123  163.6826 C.3     1  UNL1        0.0971
      4 N         143.5294  143.3439  163.2887 N.am    1  UNL1       -0.2790
      5 C         144.3915  142.7119  164.3410 C.2     1  UNL1        0.2301
      6 O         145.4672  141.7434  163.9471 O.2     1  UNL1       -0.2745
      7 C         143.7430  143.0076  161.8426 C.3     1  UNL1        0.0971
      8 C         142.8809  143.6396  160.7903 C.3     1  UNL1        0.0650
      9 O         140.9431  145.2401  160.1319 O.3     1  UNL1       -0.4789
     10 C         138.6390  142.6541  157.2590 C.ar    1  UNL1        0.0034
     11 C         138.6009  142.3597  158.7293 C.ar    1  UNL1        0.0032
     12 C         139.3689  143.2217  159.6869 C.ar    1  UNL1        0.0370
     13 C         140.1751  144.3781  159.1742 C.ar    1  UNL1        0.1427
     14 C         140.2132  144.6725  157.7039 C.ar    1  UNL1        0.0870
     15 C         139.4452  143.8105  156.7463 C.ar    1  UNL1        0.0077
     16 C         134.8204  139.7125  155.1034 C.3     1  UNL1        0.1538
     17 N         136.1157  140.4400  155.3105 N.ar    1  UNL1       -0.2473
     18 C         136.4919  141.2440  156.5197 C.ar    1  UNL1        0.0967
     19 C         137.8710  141.7921  156.3013 C.ar    1  UNL1        0.0396
     20 C         138.3471  141.3269  154.9571 C.ar    1  UNL1        0.1216
     21 N         137.2624  140.4913  154.3448 N.ar    1  UNL1       -0.1676
     22 C         141.0194  145.8289  157.1912 C.2     1  UNL1        0.2457
     23 N         142.3617  146.1309  157.7886 N.am    1  UNL1       -0.3252
     24 O         140.4832  146.6833  156.0811 O.2     1  UNL1       -0.2703
     25 H         142.7136  145.5701  158.5173 H       1  UNL1        0.1453
     26 H         142.8908  146.8899  157.4521 H       1  UNL1        0.1453
     27 C         144.1779  143.0482  165.7871 C.3     1  UNL1        0.1116
     28 C         143.3021  142.1772  166.6382 C.ar    1  UNL1       -0.0129
     29 C         143.1971  142.4320  168.1127 C.ar    1  UNL1       -0.0007
     30 C         142.3214  141.5611  168.9639 C.ar    1  UNL1        0.0369
     31 C         141.5506  140.4354  168.3406 C.ar    1  UNL1        0.1468
     32 C         141.6555  140.1806  166.8661 C.ar    1  UNL1        0.0369
     33 C         142.5313  141.0515  166.0149 C.ar    1  UNL1       -0.0007
     34 O         140.6748  139.5644  169.1917 O.3     1  UNL1       -0.4045
     35 C         139.3813  140.0999  169.7304 C.3     1  UNL1        0.5753
     36 F         138.0878  140.6353  170.2691 F       1  UNL1       -0.1328
     37 F         140.0387  140.3565  171.0540 F       1  UNL1       -0.1328
     38 F         138.7238  139.8433  168.4068 F       1  UNL1       -0.1328
@<TRIPOS>BOND
     1    16    17    1
     2    17    18   ar
     3    18    19   ar
     4    19    10    1
     5    10    11   ar
     6    11    12   ar
     7    12    13   ar
     8    13     9    1
     9     9     1    1
    10     1     2    1
    11     2     3    1
    12     3     4    1
    13     4     5   am
    14     5     6    2
    15     5    27    1
    16    27    28    1
    17    28    29   ar
    18    29    30   ar
    19    30    31   ar
    20    31    34    1
    21    34    35    1
    22    35    36    1
    23    35    37    1
    24    35    38    1
    25    31    32   ar
    26    32    33   ar
    27     4     7    1
    28     7     8    1
    29    13    14   ar
    30    14    22    1
    31    22    23   am
    32    22    24    2
    33    14    15   ar
    34    19    20   ar
    35    20    21   ar
    36    21    17   ar
    37    15    10   ar
    38     8     1    1
    39    33    28   ar
    40    23    25    1
    41    23    26    1
@<TRIPOS>MOLECULE
*****
 38 41 0 0 0
SMALL
GASTEIGER

@<TRIPOS>ATOM
      1 C         139.5312  140.0864  160.7363 C.3     1  UNL1        0.1693
      2 C         139.0559  139.2926  159.5556 C.3     1  UNL1        0.0650
      3 C         140.0202  138.9095  158.4722 C.3     1  UNL1        0.0971
      4 N         141.4595  139.3202  158.5696 N.am    1  UNL1       -0.2790
      5 C         142.4237  138.9371  157.4863 C.2     1  UNL1        0.2301
      6 O         143.8631  139.3478  157.5837 O.2     1  UNL1       -0.2745
      7 C         141.9348  140.1140  159.7504 C.3     1  UNL1        0.0971
      8 C         140.9706  140.4971  160.8337 C.3     1  UNL1        0.0650
      9 O         138.5670  140.4695  161.8196 O.3     1  UNL1       -0.4789
     10 C         139.7951  140.1597  166.1377 C.ar    1  UNL1        0.0034
     11 C         139.4139  141.4905  165.5600 C.ar    1  UNL1        0.0032
     12 C         139.0045  141.5937  164.1207 C.ar    1  UNL1        0.0370
     13 C         138.9764  140.3662  163.2590 C.ar    1  UNL1        0.1427
     14 C         139.3576  139.0355  163.8367 C.ar    1  UNL1        0.0870
     15 C         139.7670  138.9322  165.2760 C.ar    1  UNL1        0.0077
     16 C         142.7352  139.8108  170.5098 C.3     1  UNL1        0.1538
     17 N         141.5560  139.8960  169.5867 N.ar    1  UNL1       -0.2473
     18 C         141.6124  139.9934  168.0909 C.ar    1  UNL1        0.0967
     19 C         140.2045  140.0564  167.5771 C.ar    1  UNL1        0.0396
     20 C         139.2780  139.9981  168.7552 C.ar    1  UNL1        0.1216
     21 N         140.1132  139.8990  169.9973 N.ar    1  UNL1       -0.1676
     22 C         139.3295  137.8080  162.9750 C.2     1  UNL1        0.2457
     23 N         138.0389  137.3514  162.3620 N.am    1  UNL1       -0.3252
     24 O         140.5920  137.0371  162.7264 O.2     1  UNL1       -0.2703
     25 H         137.2103  137.8573  162.5252 H       1  UNL1        0.1453
     26 H         138.0205  136.5457  161.7965 H       1  UNL1        0.1453
     27 C         141.9485  138.1433  156.3056 C.3     1  UNL1        0.1116
     28 C         142.1172  136.6529  156.2869 C.ar    1  UNL1       -0.0129
     29 C         143.1060  135.9985  157.2055 C.ar    1  UNL1       -0.0007
     30 C         143.2747  134.5081  157.1869 C.ar    1  UNL1        0.0369
     31 C         142.4546  133.6723  156.2495 C.ar    1  UNL1        0.1468
     32 C         141.4658  134.3267  155.3309 C.ar    1  UNL1        0.0369
     33 C         141.2971  135.8170  155.3495 C.ar    1  UNL1       -0.0007
     34 O         142.6233  132.1818  156.2308 O.3     1  UNL1       -0.4045
     35 C         143.9755  131.5832  155.9793 C.3     1  UNL1        0.5753
     36 F         145.3277  130.9846  155.7279 F       1  UNL1       -0.1328
     37 F         143.8396  131.8904  154.5174 F       1  UNL1       -0.1328
     38 F         144.1114  131.2760  157.4412 F       1  UNL1       -0.1328
@<TRIPOS>BOND
     1    16    17    1
     2    17    18   ar
     3    18    19   ar
     4    19    10    1
     5    10    11   ar
     6    11    12   ar
     7    12    13   ar
     8    13     9    1
     9     9     1    1
    10     1     2    1
    11     2     3    1
    12     3     4    1
    13     4     5   am
    14     5     6    2
    15     5    27    1
    16    27    28    1
    17    28    29   ar
    18    29    30   ar
    19    30    31   ar
    20    31    34    1
    21    34    35    1
    22    35    36    1
    23    35    37    1
    24    35    38    1
    25    31    32   ar
    26    32    33   ar
    27     4     7    1
    28     7     8    1
    29    13    14   ar
    30    14    22    1
    31    22    23   am
    32    22    24    2
    33    14    15   ar
    34    19    20   ar
    35    20    21   ar
    36    21    17   ar
    37    15    10   ar
    38     8     1    1
    39    33    28   ar
    40    23    25    1
    41    23    26    1
@<TRIPOS>MOLECULE
*****
 38 41 0 0 0
SMALL
GASTEIGER

@<TRIPOS>ATOM
      1 C         140.2615  139.8062  158.6859 C.3     1  UNL1        0.1693
      2 C         140.2605  138.7947  159.7936 C.3     1  UNL1        0.0650
      3 C         139.4759  139.0542  161.0455 C.3     1  UNL1        0.0971
      4 N         138.6924  140.3251  161.1897 N.am    1  UNL1       -0.2790
      5 C         137.9079  140.5845  162.4415 C.2     1  UNL1        0.2301
      6 O         137.1243  141.8554  162.5858 O.2     1  UNL1       -0.2745
      7 C         138.6934  141.3366  160.0820 C.3     1  UNL1        0.0971
      8 C         139.4779  141.0772  158.8302 C.3     1  UNL1        0.0650
      9 O         141.0460  139.5468  157.4341 O.3     1  UNL1       -0.4789
     10 C         142.0863  135.3279  156.2643 C.ar    1  UNL1        0.0034
     11 C         142.9923  136.0976  157.1790 C.ar    1  UNL1        0.0032
     12 C         142.6455  137.5039  157.5689 C.ar    1  UNL1        0.0370
     13 C         141.3927  138.1404  157.0441 C.ar    1  UNL1        0.1427
     14 C         140.4868  137.3707  156.1294 C.ar    1  UNL1        0.0870
     15 C         140.8336  135.9644  155.7395 C.ar    1  UNL1        0.0077
     16 C         144.7627  130.8368  155.5237 C.3     1  UNL1        0.1538
     17 N         143.6633  131.8572  155.5340 N.ar    1  UNL1       -0.2473
     18 C         143.7640  133.2563  156.0652 C.ar    1  UNL1        0.0967
     19 C         142.4331  133.9215  155.8744 C.ar    1  UNL1        0.0396
     20 C         141.5100  132.9335  155.2251 C.ar    1  UNL1        0.1216
     21 N         142.2702  131.6577  155.0147 N.ar    1  UNL1       -0.1676
     22 C         139.2341  138.0073  155.6046 C.2     1  UNL1        0.2457
     23 N         139.2354  139.4556  155.2145 N.am    1  UNL1       -0.3252
     24 O         137.9800  137.1955  155.4698 O.2     1  UNL1       -0.2703
     25 H         140.0585  139.9885  155.3029 H       1  UNL1        0.1453
     26 H         138.4132  139.8734  154.8700 H       1  UNL1        0.1453
     27 C         137.9069  139.5730  163.5492 C.3     1  UNL1        0.1116
     28 C         138.5978  139.8791  164.8450 C.ar    1  UNL1       -0.0129
     29 C         138.2146  139.1391  166.0923 C.ar    1  UNL1       -0.0007
     30 C         138.9055  139.4452  167.3880 C.ar    1  UNL1        0.0369
     31 C         139.9794  140.4912  167.4365 C.ar    1  UNL1        0.1468
     32 C         140.3625  141.2312  166.1893 C.ar    1  UNL1        0.0369
     33 C         139.6717  140.9251  164.8935 C.ar    1  UNL1       -0.0007
     34 O         140.6703  140.7973  168.7324 O.3     1  UNL1       -0.4045
     35 C         141.4027  139.7132  169.4661 C.3     1  UNL1        0.5753
     36 F         142.1351  138.6292  170.1999 F       1  UNL1       -0.1328
     37 F         140.3018  139.6581  170.4835 F       1  UNL1       -0.1328
     38 F         142.5036  139.7684  168.4488 F       1  UNL1       -0.1328
@<TRIPOS>BOND
     1    16    17    1
     2    17    18   ar
     3    18    19   ar
     4    19    10    1
     5    10    11   ar
     6    11    12   ar
     7    12    13   ar
     8    13     9    1
     9     9     1    1
    10     1     2    1
    11     2     3    1
    12     3     4    1
    13     4     5   am
    14     5     6    2
    15     5    27    1
    16    27    28    1
    17    28    29   ar
    18    29    30   ar
    19    30    31   ar
    20    31    34    1
    21    34    35    1
    22    35    36    1
    23    35    37    1
    24    35    38    1
    25    31    32   ar
    26    32    33   ar
    27     4     7    1
    28     7     8    1
    29    13    14   ar
    30    14    22    1
    31    22    23   am
    32    22    24    2
    33    14    15   ar
    34    19    20   ar
    35    20    21   ar
    36    21    17   ar
    37    15    10   ar
    38     8     1    1
    39    33    28   ar
    40    23    25    1
    41    23    26    1
@<TRIPOS>MOLECULE
*****
 38 41 0 0 0
SMALL
GASTEIGER

@<TRIPOS>ATOM
      1 C         142.2631  139.1650  159.6007 C.3     1  UNL1        0.1693
      2 C         141.3175  138.5589  160.5949 C.3     1  UNL1        0.0650
      3 C         141.7115  138.4562  162.0386 C.3     1  UNL1        0.0971
      4 N         143.0511  138.9596  162.4881 N.am    1  UNL1       -0.2790
      5 C         143.4450  138.8568  163.9317 C.2     1  UNL1        0.2301
      6 O         144.7847  139.3603  164.3813 O.2     1  UNL1       -0.2745
      7 C         143.9967  139.5657  161.4939 C.3     1  UNL1        0.0971
      8 C         143.6028  139.6685  160.0502 C.3     1  UNL1        0.0650
      9 O         141.8692  139.2678  158.1570 O.3     1  UNL1       -0.4789
     10 C         141.5418  135.5492  155.6440 C.ar    1  UNL1        0.0034
     11 C         142.8252  135.8642  156.3537 C.ar    1  UNL1        0.0032
     12 C         142.9343  137.1037  157.1914 C.ar    1  UNL1        0.0370
     13 C         141.7600  138.0282  157.3193 C.ar    1  UNL1        0.1427
     14 C         140.4767  137.7133  156.6096 C.ar    1  UNL1        0.0870
     15 C         140.3676  136.4738  155.7719 C.ar    1  UNL1        0.0077
     16 C         141.1295  130.4890  154.1929 C.3     1  UNL1        0.1538
     17 N         141.2432  131.9838  154.1393 N.ar    1  UNL1       -0.2473
     18 C         141.3337  132.9040  155.3204 C.ar    1  UNL1        0.0967
     19 C         141.4327  134.3097  154.8063 C.ar    1  UNL1        0.0396
     20 C         141.4034  134.2582  153.3075 C.ar    1  UNL1        0.1216
     21 N         141.2863  132.8208  152.8952 N.ar    1  UNL1       -0.1676
     22 C         139.3024  138.6378  156.7375 C.2     1  UNL1        0.2457
     23 N         139.0237  139.3198  158.0440 N.am    1  UNL1       -0.3252
     24 O         138.4069  138.8804  155.5588 O.2     1  UNL1       -0.2703
     25 H         139.6114  139.1607  158.8176 H       1  UNL1        0.1453
     26 H         138.2530  139.9266  158.1280 H       1  UNL1        0.1453
     27 C         142.4994  138.2507  164.9259 C.3     1  UNL1        0.1116
     28 C         142.0935  139.0261  166.1442 C.ar    1  UNL1       -0.0129
     29 C         142.9642  139.0138  167.3655 C.ar    1  UNL1       -0.0007
     30 C         142.5584  139.7891  168.5838 C.ar    1  UNL1        0.0369
     31 C         141.2819  140.5767  168.5806 C.ar    1  UNL1        0.1468
     32 C         140.4111  140.5890  167.3593 C.ar    1  UNL1        0.0369
     33 C         140.8170  139.8137  166.1410 C.ar    1  UNL1       -0.0007
     34 O         140.8760  141.3521  169.7989 O.3     1  UNL1       -0.4045
     35 C         140.5782  142.8182  169.6900 C.3     1  UNL1        0.5753
     36 F         140.2804  144.2844  169.5811 F       1  UNL1       -0.1328
     37 F         141.8932  143.0342  169.0014 F       1  UNL1       -0.1328
     38 F         139.2632  142.6023  170.3786 F       1  UNL1       -0.1328
@<TRIPOS>BOND
     1    16    17    1
     2    17    18   ar
     3    18    19   ar
     4    19    10    1
     5    10    11   ar
     6    11    12   ar
     7    12    13   ar
     8    13     9    1
     9     9     1    1
    10     1     2    1
    11     2     3    1
    12     3     4    1
    13     4     5   am
    14     5     6    2
    15     5    27    1
    16    27    28    1
    17    28    29   ar
    18    29    30   ar
    19    30    31   ar
    20    31    34    1
    21    34    35    1
    22    35    36    1
    23    35    37    1
    24    35    38    1
    25    31    32   ar
    26    32    33   ar
    27     4     7    1
    28     7     8    1
    29    13    14   ar
    30    14    22    1
    31    22    23   am
    32    22    24    2
    33    14    15   ar
    34    19    20   ar
    35    20    21   ar
    36    21    17   ar
    37    15    10   ar
    38     8     1    1
    39    33    28   ar
    40    23    25    1
    41    23    26    1
@<TRIPOS>MOLECULE
*****
 38 41 0 0 0
SMALL
GASTEIGER

@<TRIPOS>ATOM
      1 C         138.2871  140.0594  162.6811 C.3     1  UNL1        0.1693
      2 C         139.7581  139.7813  162.5868 C.3     1  UNL1        0.0650
      3 C         140.3605  139.3661  161.2772 C.3     1  UNL1        0.0971
      4 N         139.4919  139.2289  160.0621 N.am    1  UNL1       -0.2790
      5 C         140.0943  138.8137  158.7526 C.2     1  UNL1        0.2301
      6 O         139.2256  138.6765  157.5374 O.2     1  UNL1       -0.2745
      7 C         138.0209  139.5070  160.1564 C.3     1  UNL1        0.0971
      8 C         137.4185  139.9222  161.4658 C.3     1  UNL1        0.0650
      9 O         137.6847  140.4746  163.9905 O.3     1  UNL1       -0.4789
     10 C         140.3320  141.9412  167.3207 C.ar    1  UNL1        0.0034
     11 C         139.9813  142.8546  166.1839 C.ar    1  UNL1        0.0032
     12 C         139.0988  142.3658  165.0739 C.ar    1  UNL1        0.0370
     13 C         138.5672  140.9634  165.1006 C.ar    1  UNL1        0.1427
     14 C         138.9179  140.0499  166.2375 C.ar    1  UNL1        0.0870
     15 C         139.8004  140.5388  167.3475 C.ar    1  UNL1        0.0077
     16 C         144.5675  142.8445  170.3417 C.3     1  UNL1        0.1538
     17 N         143.1614  142.8452  169.8194 N.ar    1  UNL1       -0.2473
     18 C         142.6860  142.1721  168.5661 C.ar    1  UNL1        0.0967
     19 C         141.2145  142.4300  168.4309 C.ar    1  UNL1        0.0396
     20 C         140.7805  143.2626  169.6007 C.ar    1  UNL1        0.1216
     21 N         141.9837  143.5192  170.4588 N.ar    1  UNL1       -0.1676
     22 C         138.3863  138.6476  166.2643 C.2     1  UNL1        0.2457
     23 N         138.8474  137.6510  165.2425 N.am    1  UNL1       -0.3252
     24 O         137.3934  138.2418  167.3129 O.2     1  UNL1       -0.2703
     25 H         139.4990  137.9173  164.5542 H       1  UNL1        0.1453
     26 H         138.4984  136.7306  165.2601 H       1  UNL1        0.1453
     27 C         141.5652  138.5357  158.6584 C.3     1  UNL1        0.1116
     28 C         142.5351  139.3467  159.4658 C.ar    1  UNL1       -0.0129
     29 C         142.7833  140.7843  159.1169 C.ar    1  UNL1       -0.0007
     30 C         143.7530  141.5953  159.9243 C.ar    1  UNL1        0.0369
     31 C         144.4746  140.9687  161.0804 C.ar    1  UNL1        0.1468
     32 C         144.2264  139.5311  161.4292 C.ar    1  UNL1        0.0369
     33 C         143.2566  138.7201  160.6219 C.ar    1  UNL1       -0.0007
     34 O         145.4444  141.7797  161.8878 O.3     1  UNL1       -0.4045
     35 C         145.1287  142.1259  163.3127 C.3     1  UNL1        0.5753
     36 F         144.8129  142.4720  164.7377 F       1  UNL1       -0.1328
     37 F         143.9069  142.8698  162.8613 F       1  UNL1       -0.1328
     38 F         146.3504  141.3819  163.7642 F       1  UNL1       -0.1328
@<TRIPOS>BOND
     1    16    17    1
     2    17    18   ar
     3    18    19   ar
     4    19    10    1
     5    10    11   ar
     6    11    12   ar
     7    12    13   ar
     8    13     9    1
     9     9     1    1
    10     1     2    1
    11     2     3    1
    12     3     4    1
    13     4     5   am
    14     5     6    2
    15     5    27    1
    16    27    28    1
    17    28    29   ar
    18    29    30   ar
    19    30    31   ar
    20    31    34    1
    21    34    35    1
    22    35    36    1
    23    35    37    1
    24    35    38    1
    25    31    32   ar
    26    32    33   ar
    27     4     7    1
    28     7     8    1
    29    13    14   ar
    30    14    22    1
    31    22    23   am
    32    22    24    2
    33    14    15   ar
    34    19    20   ar
    35    20    21   ar
    36    21    17   ar
    37    15    10   ar
    38     8     1    1
    39    33    28   ar
    40    23    25    1
    41    23    26    1
@<TRIPOS>MOLECULE
*****
 38 41 0 0 0
SMALL
GASTEIGER

@<TRIPOS>ATOM
      1 C         141.3973  143.4582  160.9861 C.3     1  UNL1        0.1693
      2 C         141.7239  144.2541  159.7573 C.3     1  UNL1        0.0650
      3 C         142.5629  143.6474  158.6718 C.3     1  UNL1        0.0971
      4 N         143.0752  142.2450  158.8152 N.am    1  UNL1       -0.2790
      5 C         143.9141  141.6384  157.7298 C.2     1  UNL1        0.2301
      6 O         144.4265  140.2358  157.8731 O.2     1  UNL1       -0.2745
      7 C         142.7486  141.4491  160.0440 C.3     1  UNL1        0.0971
      8 C         141.9097  142.0557  161.1294 C.3     1  UNL1        0.0650
      9 O         140.5584  144.0648  162.0715 O.3     1  UNL1       -0.4789
     10 C         140.3046  142.0722  166.0983 C.ar    1  UNL1        0.0034
     11 C         141.6107  142.6341  165.6205 C.ar    1  UNL1        0.0032
     12 C         141.6953  143.2983  164.2783 C.ar    1  UNL1        0.0370
     13 C         140.4737  143.4006  163.4138 C.ar    1  UNL1        0.1427
     14 C         139.1676  142.8387  163.8916 C.ar    1  UNL1        0.0870
     15 C         139.0831  142.1745  165.2338 C.ar    1  UNL1        0.0077
     16 C         140.8764  141.0719  171.2513 C.3     1  UNL1        0.1538
     17 N         140.4828  140.9482  169.8092 N.ar    1  UNL1       -0.2473
     18 C         140.8062  141.9274  168.7199 C.ar    1  UNL1        0.0967
     19 C         140.2200  141.4079  167.4406 C.ar    1  UNL1        0.0396
     20 C         139.5343  140.1077  167.7392 C.ar    1  UNL1        0.1216
     21 N         139.6968  139.8235  169.2031 N.ar    1  UNL1       -0.1676
     22 C         137.9461  142.9411  163.0271 C.2     1  UNL1        0.2457
     23 N         137.5678  144.2577  162.4161 N.am    1  UNL1       -0.3252
     24 O         137.1028  141.7267  162.7735 O.2     1  UNL1       -0.2703
     25 H         138.1212  145.0547  162.5825 H       1  UNL1        0.1453
     26 H         136.7660  144.3248  161.8487 H       1  UNL1        0.1453
     27 C         144.2407  142.4342  156.5010 C.3     1  UNL1        0.1116
     28 C         145.5366  142.2046  155.7812 C.ar    1  UNL1       -0.0129
     29 C         146.8369  142.3365  156.5172 C.ar    1  UNL1       -0.0007
     30 C         148.1328  142.1069  155.7975 C.ar    1  UNL1        0.0369
     31 C         148.1283  141.7455  154.3417 C.ar    1  UNL1        0.1468
     32 C         146.8279  141.6136  153.6057 C.ar    1  UNL1        0.0369
     33 C         145.5321  141.8431  154.3254 C.ar    1  UNL1       -0.0007
     34 O         149.4242  141.5159  153.6219 O.3     1  UNL1       -0.4045
     35 C         150.7088  142.0180  154.2116 C.3     1  UNL1        0.5753
     36 F         151.9934  142.5200  154.8012 F       1  UNL1       -0.1328
     37 F         150.9644  140.6650  154.8066 F       1  UNL1       -0.1328
     38 F         150.4531  143.3709  153.6165 F       1  UNL1       -0.1328
@<TRIPOS>BOND
     1    16    17    1
     2    17    18   ar
     3    18    19   ar
     4    19    10    1
     5    10    11   ar
     6    11    12   ar
     7    12    13   ar
     8    13     9    1
     9     9     1    1
    10     1     2    1
    11     2     3    1
    12     3     4    1
    13     4     5   am
    14     5     6    2
    15     5    27    1
    16    27    28    1
    17    28    29   ar
    18    29    30   ar
    19    30    31   ar
    20    31    34    1
    21    34    35    1
    22    35    36    1
    23    35    37    1
    24    35    38    1
    25    31    32   ar
    26    32    33   ar
    27     4     7    1
    28     7     8    1
    29    13    14   ar
    30    14    22    1
    31    22    23   am
    32    22    24    2
    33    14    15   ar
    34    19    20   ar
    35    20    21   ar
    36    21    17   ar
    37    15    10   ar
    38     8     1    1
    39    33    28   ar
    40    23    25    1
    41    23    26    1
@<TRIPOS>MOLECULE
*****
 38 41 0 0 0
SMALL
GASTEIGER

@<TRIPOS>ATOM
      1 C         139.8811  140.2880  158.9310 C.3     1  UNL1        0.1693
      2 C         140.1293  139.2845  160.0180 C.3     1  UNL1        0.0650
      3 C         139.4498  139.4348  161.3468 C.3     1  UNL1        0.0971
      4 N         138.5221  140.5884  161.5887 N.am    1  UNL1       -0.2790
      5 C         137.8427  140.7386  162.9175 C.2     1  UNL1        0.2301
      6 O         136.9150  141.8923  163.1594 O.2     1  UNL1       -0.2745
      7 C         138.2739  141.5918  160.5017 C.3     1  UNL1        0.0971
      8 C         138.9534  141.4417  159.1729 C.3     1  UNL1        0.0650
      9 O         140.5605  140.1378  157.6022 O.3     1  UNL1       -0.4789
     10 C         142.1483  136.1247  156.3278 C.ar    1  UNL1        0.0034
     11 C         140.7207  136.4899  156.0475 C.ar    1  UNL1        0.0032
     12 C         140.1914  137.8275  156.4723 C.ar    1  UNL1        0.0370
     13 C         141.0898  138.8001  157.1774 C.ar    1  UNL1        0.1427
     14 C         142.5174  138.4349  157.4576 C.ar    1  UNL1        0.0870
     15 C         143.0466  137.0973  157.0328 C.ar    1  UNL1        0.0077
     16 C         144.9298  131.6387  156.1876 C.3     1  UNL1        0.1538
     17 N         143.9561  132.7250  155.8385 N.ar    1  UNL1       -0.2473
     18 C         143.7395  133.9951  156.6067 C.ar    1  UNL1        0.0967
     19 C         142.6776  134.7870  155.9030 C.ar    1  UNL1        0.0396
     20 C         142.2379  134.0064  154.6999 C.ar    1  UNL1        0.1216
     21 N         143.0281  132.7320  154.6601 N.ar    1  UNL1       -0.1676
     22 C         143.4158  139.4075  158.1627 C.2     1  UNL1        0.2457
     23 N         143.8177  139.1607  159.5866 N.am    1  UNL1       -0.3252
     24 O         143.9122  140.6268  157.4439 O.2     1  UNL1       -0.2703
     25 H         143.4919  138.3604  160.0584 H       1  UNL1        0.1453
     26 H         144.4074  139.7990  160.0493 H       1  UNL1        0.1453
     27 C         138.0909  139.7351  164.0044 C.3     1  UNL1        0.1116
     28 C         138.7456  140.1626  165.2846 C.ar    1  UNL1       -0.0129
     29 C         138.6008  139.3217  166.5182 C.ar    1  UNL1       -0.0007
     30 C         139.2555  139.7492  167.7983 C.ar    1  UNL1        0.0369
     31 C         140.0549  141.0175  167.8448 C.ar    1  UNL1        0.1468
     32 C         140.1996  141.8584  166.6111 C.ar    1  UNL1        0.0369
     33 C         139.5450  141.4310  165.3310 C.ar    1  UNL1       -0.0007
     34 O         140.7095  141.4450  169.1249 O.3     1  UNL1       -0.4045
     35 C         140.3066  142.7330  169.7797 C.3     1  UNL1        0.5753
     36 F         139.9037  144.0210  170.4344 F       1  UNL1       -0.1328
     37 F         141.5364  143.3956  169.2331 F       1  UNL1       -0.1328
     38 F         139.0769  142.0705  170.3263 F       1  UNL1       -0.1328
@<TRIPOS>BOND
     1    16    17    1
     2    17    18   ar
     3    18    19   ar
     4    19    10    1
     5    10    11   ar
     6    11    12   ar
     7    12    13   ar
     8    13     9    1
     9     9     1    1
    10     1     2    1
    11     2     3    1
    12     3     4    1
    13     4     5   am
    14     5     6    2
    15     5    27    1
    16    27    28    1
    17    28    29   ar
    18    29    30   ar
    19    30    31   ar
    20    31    34    1
    21    34    35    1
    22    35    36    1
    23    35    37    1
    24    35    38    1
    25    31    32   ar
    26    32    33   ar
    27     4     7    1
    28     7     8    1
    29    13    14   ar
    30    14    22    1
    31    22    23   am
    32    22    24    2
    33    14    15   ar
    34    19    20   ar
    35    20    21   ar
    36    21    17   ar
    37    15    10   ar
    38     8     1    1
    39    33    28   ar
    40    23    25    1
    41    23    26    1
