@<TRIPOS>MOLECULE
*****
 39 44 0 0 0
SMALL
GASTEIGER

@<TRIPOS>ATOM
      1 C         137.8944  142.9959  163.0025 C.3     1  UNL1        0.0932
      2 C         138.1105  142.7388  161.5406 C.3     1  UNL1        0.0286
      3 C         138.0915  141.3340  161.0153 C.3     1  UNL1        0.0193
      4 C         137.8564  140.1861  161.9520 C.3     1  UNL1        0.0700
      5 C         137.6403  140.4432  163.4139 C.3     1  UNL1        0.0193
      6 C         137.6594  141.8481  163.9392 C.3     1  UNL1        0.0286
      7 C         137.8580  140.9385  162.2864 C.3     1  UNL1        0.1562
      8 O         137.8752  142.2088  162.7614 O.3     1  UNL1       -0.3572
      9 N         137.8374  138.7812  161.4267 N.3     1  UNL1       -0.2926
     10 H         137.2749  138.7926  160.5759 H       1  UNL1        0.1236
     11 C         139.1245  138.0905  161.0857 C.3     1  UNL1        0.1152
     12 C         140.3239  138.2601  161.9704 C.ar    1  UNL1        0.0765
     13 C         140.4733  137.4160  163.2014 C.ar    1  UNL1        0.0193
     14 C         141.6727  137.5856  164.0860 C.ar    1  UNL1        0.0411
     15 C         142.7227  138.5993  163.7397 C.ar    1  UNL1        0.1708
     16 C         142.5734  139.4433  162.5088 C.ar    1  UNL1        0.1682
     17 N         141.3739  139.2738  161.6241 N.ar    1  UNL1       -0.2304
     18 N         143.6234  140.4570  162.1625 N.am    1  UNL1       -0.2639
     19 C         144.8228  140.6266  163.0471 C.2     1  UNL1        0.2718
     20 O         145.8729  141.6402  162.7008 O.2     1  UNL1       -0.2707
     21 C         144.9722  139.7825  164.2781 C.3     1  UNL1        0.2898
     22 O         143.9222  138.7688  164.6244 O.3     1  UNL1       -0.4628
     23 H         143.5254  141.0110  161.3546 H       1  UNL1        0.1565
     24 C         137.9134  144.4008  163.5278 C.3     1  UNL1        0.0320
     25 C         138.8807  144.7845  164.6082 C.3     1  UNL1        0.0335
     26 C         140.6120  141.5257  167.1837 C.ar    1  UNL1        0.2250
     27 C         142.0612  141.1601  167.0573 C.ar    1  UNL1        0.0593
     28 C         142.9334  141.8808  166.0725 C.ar    1  UNL1        0.0254
     29 C         142.3563  142.9671  165.2140 C.ar    1  UNL1        0.0990
     30 N         143.2285  143.6877  164.2291 N.ar    1  UNL1       -0.2392
     31 C         142.6515  144.7740  163.3707 C.ar    1  UNL1        0.1351
     32 C         141.2022  145.1396  163.4970 C.ar    1  UNL1        0.1502
     33 O         140.6251  146.2259  162.6385 O.3     1  UNL1       -0.5042
     34 C         140.3300  144.4189  164.4818 C.ar    1  UNL1        0.0323
     35 C         140.9071  143.3326  165.3404 C.ar    1  UNL1        0.1009
     36 N         140.0349  142.6120  166.3252 N.ar    1  UNL1       -0.2104
     37 H         141.1700  146.6760  162.0233 H       1  UNL1        0.2922
     38 C         139.7904  141.1698  169.6226 C.3     1  UNL1        0.2542
     39 O         139.7398  140.8050  168.1685 O.3     1  UNL1       -0.4561
@<TRIPOS>BOND
     1    38    39    1
     2    39    26    1
     3    26    27   ar
     4    27    28   ar
     5    28    29   ar
     6    29    30   ar
     7    30    31   ar
     8    31    32   ar
     9    32    33    1
    10    32    34   ar
    11    34    25    1
    12    25    24    1
    13    24     1    1
    14     1     2    1
    15     2     3    1
    16     3     4    1
    17     4     9    1
    18     9    11    1
    19    11    12    1
    20    12    13   ar
    21    13    14   ar
    22    14    15   ar
    23    15    16   ar
    24    16    17   ar
    25    16    18    1
    26    18    19   am
    27    19    20    2
    28    19    21    1
    29    21    22    1
    30     4     5    1
    31     5     6    1
    32     4     7    1
    33     7     8    1
    34    34    35   ar
    35    35    36   ar
    36    36    26   ar
    37    35    29   ar
    38     6     1    1
    39     8     1    1
    40    17    12   ar
    41    22    15    1
    42    33    37    1
    43     9    10    1
    44    18    23    1
@<TRIPOS>MOLECULE
*****
 39 44 0 0 0
SMALL
GASTEIGER

@<TRIPOS>ATOM
      1 C         142.1111  138.0081  164.0372 C.3     1  UNL1        0.0932
      2 C         143.0115  138.5505  165.1073 C.3     1  UNL1        0.0286
      3 C         144.1688  139.4307  164.7388 C.3     1  UNL1        0.0193
      4 C         144.4258  139.7685  163.3001 C.3     1  UNL1        0.0700
      5 C         143.5255  139.2261  162.2299 C.3     1  UNL1        0.0193
      6 C         142.3681  138.3459  162.5985 C.3     1  UNL1        0.0286
      7 C         143.7793  139.2823  163.4533 C.3     1  UNL1        0.1562
      8 O         142.7328  138.4864  163.7865 O.3     1  UNL1       -0.3572
      9 N         145.5831  140.6487  162.9316 N.3     1  UNL1       -0.2926
     10 H         145.6271  140.6661  161.9126 H       1  UNL1        0.1236
     11 C         145.6157  142.0763  163.3909 C.3     1  UNL1        0.1152
     12 C         144.4011  142.9423  163.2346 C.ar    1  UNL1        0.0765
     13 C         143.7334  143.5234  164.4457 C.ar    1  UNL1        0.0193
     14 C         142.5187  144.3895  164.2894 C.ar    1  UNL1        0.0411
     15 C         141.9716  144.6745  162.9222 C.ar    1  UNL1        0.1708
     16 C         142.6392  144.0935  161.7111 C.ar    1  UNL1        0.1682
     17 N         143.8540  143.2274  161.8673 N.ar    1  UNL1       -0.2304
     18 N         142.0921  144.3785  160.3438 N.am    1  UNL1       -0.2639
     19 C         140.8775  145.2446  160.1876 C.2     1  UNL1        0.2718
     20 O         140.3304  145.5296  158.8203 O.2     1  UNL1       -0.2707
     21 C         140.2098  145.8256  161.3987 C.3     1  UNL1        0.2898
     22 O         140.7569  145.5406  162.7660 O.3     1  UNL1       -0.4628
     23 H         142.5303  143.9971  159.5490 H       1  UNL1        0.1565
     24 C         140.9538  137.1279  164.4057 C.3     1  UNL1        0.0320
     25 C         139.6555  137.7396  164.8420 C.3     1  UNL1        0.0335
     26 C         140.2952  141.8131  166.6440 C.ar    1  UNL1        0.2250
     27 C         139.7689  143.0326  165.9469 C.ar    1  UNL1        0.0593
     28 C         139.0294  142.8942  164.6493 C.ar    1  UNL1        0.0254
     29 C         138.8161  141.5364  164.0486 C.ar    1  UNL1        0.0990
     30 N         138.0766  141.3980  162.7509 N.ar    1  UNL1       -0.2392
     31 C         137.8634  140.0402  162.1503 C.ar    1  UNL1        0.1351
     32 C         138.3897  138.8207  162.8473 C.ar    1  UNL1        0.1502
     33 O         138.1765  137.4628  162.2467 O.3     1  UNL1       -0.5042
     34 C         139.1292  138.9590  164.1450 C.ar    1  UNL1        0.0323
     35 C         139.3424  140.3169  164.7456 C.ar    1  UNL1        0.1009
     36 N         140.0819  140.4553  166.0433 N.ar    1  UNL1       -0.2104
     37 H         137.7145  137.3764  161.4361 H       1  UNL1        0.2922
     38 C         142.5300  142.0697  167.9438 C.3     1  UNL1        0.2542
     39 O         141.0347  141.9515  167.9416 O.3     1  UNL1       -0.4561
@<TRIPOS>BOND
     1    38    39    1
     2    39    26    1
     3    26    27   ar
     4    27    28   ar
     5    28    29   ar
     6    29    30   ar
     7    30    31   ar
     8    31    32   ar
     9    32    33    1
    10    32    34   ar
    11    34    25    1
    12    25    24    1
    13    24     1    1
    14     1     2    1
    15     2     3    1
    16     3     4    1
    17     4     9    1
    18     9    11    1
    19    11    12    1
    20    12    13   ar
    21    13    14   ar
    22    14    15   ar
    23    15    16   ar
    24    16    17   ar
    25    16    18    1
    26    18    19   am
    27    19    20    2
    28    19    21    1
    29    21    22    1
    30     4     5    1
    31     5     6    1
    32     4     7    1
    33     7     8    1
    34    34    35   ar
    35    35    36   ar
    36    36    26   ar
    37    35    29   ar
    38     6     1    1
    39     8     1    1
    40    17    12   ar
    41    22    15    1
    42    33    37    1
    43     9    10    1
    44    18    23    1
@<TRIPOS>MOLECULE
*****
 39 44 0 0 0
SMALL
GASTEIGER

@<TRIPOS>ATOM
      1 C         141.1625  144.8351  162.8526 C.3     1  UNL1        0.0932
      2 C         142.2537  144.9265  163.8778 C.3     1  UNL1        0.0286
      3 C         143.5974  144.3210  163.5991 C.3     1  UNL1        0.0193
      4 C         143.8500  143.6239  162.2951 C.3     1  UNL1        0.0700
      5 C         142.7589  143.5324  161.2698 C.3     1  UNL1        0.0193
      6 C         141.4151  144.1380  161.5486 C.3     1  UNL1        0.0286
      7 C         143.0975  143.9404  162.4026 C.3     1  UNL1        0.1562
      8 O         141.8825  144.4879  162.6546 O.3     1  UNL1       -0.3572
      9 N         145.1937  143.0183  162.0164 N.3     1  UNL1       -0.2926
     10 H         145.8902  143.7231  162.2585 H       1  UNL1        0.1236
     11 C         145.6026  141.7506  162.7059 C.3     1  UNL1        0.1152
     12 C         144.5616  140.7554  163.1252 C.ar    1  UNL1        0.0765
     13 C         144.6133  140.1484  164.4960 C.ar    1  UNL1        0.0193
     14 C         143.5722  139.1532  164.9153 C.ar    1  UNL1        0.0411
     15 C         142.4794  138.7652  163.9640 C.ar    1  UNL1        0.1708
     16 C         142.4276  139.3722  162.5933 C.ar    1  UNL1        0.1682
     17 N         143.4687  140.3674  162.1739 N.ar    1  UNL1       -0.2304
     18 N         141.3347  138.9841  161.6420 N.am    1  UNL1       -0.2639
     19 C         140.2936  137.9890  162.0613 C.2     1  UNL1        0.2718
     20 O         139.2008  137.6010  161.1099 O.2     1  UNL1       -0.2707
     21 C         140.3454  137.3819  163.4320 C.3     1  UNL1        0.2898
     22 O         141.4383  137.7700  164.3834 O.3     1  UNL1       -0.4628
     23 H         141.3007  139.3826  160.7423 H       1  UNL1        0.1565
     24 C         139.8188  145.4406  163.1313 C.3     1  UNL1        0.0320
     25 C         138.8878  144.7835  164.1067 C.3     1  UNL1        0.0335
     26 C         140.5061  142.2179  167.4307 C.ar    1  UNL1        0.2250
     27 C         140.3090  140.7314  167.3946 C.ar    1  UNL1        0.0593
     28 C         139.5725  140.1000  166.2505 C.ar    1  UNL1        0.0254
     29 C         139.0331  140.9552  165.1425 C.ar    1  UNL1        0.0990
     30 N         138.2966  140.3239  163.9984 N.ar    1  UNL1       -0.2392
     31 C         137.7571  141.1790  162.8905 C.ar    1  UNL1        0.1351
     32 C         137.9542  142.6656  162.9265 C.ar    1  UNL1        0.1502
     33 O         137.4148  143.5208  161.8186 O.3     1  UNL1       -0.5042
     34 C         138.6907  143.2970  164.0706 C.ar    1  UNL1        0.0323
     35 C         139.2302  142.4417  165.1786 C.ar    1  UNL1        0.1009
     36 N         139.9667  143.0731  166.3227 N.ar    1  UNL1       -0.2104
     37 H         136.9547  143.1264  161.1039 H       1  UNL1        0.2922
     38 C         140.4877  143.6096  169.6245 C.3     1  UNL1        0.2542
     39 O         141.2426  142.8493  168.5748 O.3     1  UNL1       -0.4561
@<TRIPOS>BOND
     1    38    39    1
     2    39    26    1
     3    26    27   ar
     4    27    28   ar
     5    28    29   ar
     6    29    30   ar
     7    30    31   ar
     8    31    32   ar
     9    32    33    1
    10    32    34   ar
    11    34    25    1
    12    25    24    1
    13    24     1    1
    14     1     2    1
    15     2     3    1
    16     3     4    1
    17     4     9    1
    18     9    11    1
    19    11    12    1
    20    12    13   ar
    21    13    14   ar
    22    14    15   ar
    23    15    16   ar
    24    16    17   ar
    25    16    18    1
    26    18    19   am
    27    19    20    2
    28    19    21    1
    29    21    22    1
    30     4     5    1
    31     5     6    1
    32     4     7    1
    33     7     8    1
    34    34    35   ar
    35    35    36   ar
    36    36    26   ar
    37    35    29   ar
    38     6     1    1
    39     8     1    1
    40    17    12   ar
    41    22    15    1
    42    33    37    1
    43     9    10    1
    44    18    23    1
@<TRIPOS>MOLECULE
*****
 39 44 0 0 0
SMALL
GASTEIGER

@<TRIPOS>ATOM
      1 C         144.7623  140.3670  163.4067 C.3     1  UNL1        0.0932
      2 C         144.2541  140.3135  161.9964 C.3     1  UNL1        0.0286
      3 C         143.2143  139.3033  161.6116 C.3     1  UNL1        0.0193
      4 C         142.6825  138.3464  162.6372 C.3     1  UNL1        0.0700
      5 C         143.1907  138.3999  164.0475 C.3     1  UNL1        0.0193
      6 C         144.2306  139.4102  164.4322 C.3     1  UNL1        0.0286
      7 C         143.2518  138.8824  162.8953 C.3     1  UNL1        0.1562
      8 O         144.1921  139.7959  163.2432 O.3     1  UNL1       -0.3572
      9 N         141.6427  137.3362  162.2524 N.3     1  UNL1       -0.2926
     10 H         142.0739  136.4172  162.3520 H       1  UNL1        0.1236
     11 C         140.3379  137.2845  162.9905 C.3     1  UNL1        0.1152
     12 C         139.6582  138.5567  163.4022 C.ar    1  UNL1        0.0765
     13 C         138.8496  138.6004  164.6650 C.ar    1  UNL1        0.0193
     14 C         138.1700  139.8725  165.0767 C.ar    1  UNL1        0.0411
     15 C         138.2988  141.1011  164.2258 C.ar    1  UNL1        0.1708
     16 C         139.1073  141.0575  162.9631 C.ar    1  UNL1        0.1682
     17 N         139.7871  139.7852  162.5513 N.ar    1  UNL1       -0.2304
     18 N         139.2362  142.2860  162.1122 N.am    1  UNL1       -0.2639
     19 C         138.5565  143.5582  162.5239 C.2     1  UNL1        0.2718
     20 O         138.6854  144.7867  161.6730 O.2     1  UNL1       -0.2707
     21 C         137.7480  143.6019  163.7866 C.3     1  UNL1        0.2898
     22 O         137.6191  142.3733  164.6376 O.3     1  UNL1       -0.4628
     23 H         139.7669  142.2573  161.2835 H       1  UNL1        0.1565
     24 C         145.8021  141.3772  163.7914 C.3     1  UNL1        0.0320
     25 C         145.4004  142.6297  164.5125 C.3     1  UNL1        0.0335
     26 C         142.2524  141.6564  167.5772 C.ar    1  UNL1        0.2250
     27 C         140.8621  142.1978  167.4224 C.ar    1  UNL1        0.0593
     28 C         140.5212  143.0637  166.2459 C.ar    1  UNL1        0.0254
     29 C         141.5705  143.3881  165.2244 C.ar    1  UNL1        0.0990
     30 N         141.2295  144.2540  164.0479 N.ar    1  UNL1       -0.2392
     31 C         142.2788  144.5785  163.0264 C.ar    1  UNL1        0.1351
     32 C         143.6692  144.0371  163.1812 C.ar    1  UNL1        0.1502
     33 O         144.7185  144.3615  162.1596 O.3     1  UNL1       -0.5042
     34 C         144.0101  143.1712  164.3576 C.ar    1  UNL1        0.0323
     35 C         142.9607  142.8467  165.3792 C.ar    1  UNL1        0.1009
     36 N         143.3017  141.9808  166.5556 N.ar    1  UNL1       -0.2104
     37 H         144.5055  144.9024  161.4247 H       1  UNL1        0.2922
     38 C         141.5236  139.9799  169.4234 C.3     1  UNL1        0.2542
     39 O         142.5933  140.7905  168.7536 O.3     1  UNL1       -0.4561
@<TRIPOS>BOND
     1    38    39    1
     2    39    26    1
     3    26    27   ar
     4    27    28   ar
     5    28    29   ar
     6    29    30   ar
     7    30    31   ar
     8    31    32   ar
     9    32    33    1
    10    32    34   ar
    11    34    25    1
    12    25    24    1
    13    24     1    1
    14     1     2    1
    15     2     3    1
    16     3     4    1
    17     4     9    1
    18     9    11    1
    19    11    12    1
    20    12    13   ar
    21    13    14   ar
    22    14    15   ar
    23    15    16   ar
    24    16    17   ar
    25    16    18    1
    26    18    19   am
    27    19    20    2
    28    19    21    1
    29    21    22    1
    30     4     5    1
    31     5     6    1
    32     4     7    1
    33     7     8    1
    34    34    35   ar
    35    35    36   ar
    36    36    26   ar
    37    35    29   ar
    38     6     1    1
    39     8     1    1
    40    17    12   ar
    41    22    15    1
    42    33    37    1
    43     9    10    1
    44    18    23    1
@<TRIPOS>MOLECULE
*****
 39 44 0 0 0
SMALL
GASTEIGER

@<TRIPOS>ATOM
      1 C         139.4714  137.8057  164.4486 C.3     1  UNL1        0.0932
      2 C         140.8912  137.5178  164.8379 C.3     1  UNL1        0.0286
      3 C         141.9538  137.4249  163.7834 C.3     1  UNL1        0.0193
      4 C         141.5969  137.6201  162.3395 C.3     1  UNL1        0.0700
      5 C         140.1771  137.9080  161.9503 C.3     1  UNL1        0.0193
      6 C         139.1144  138.0009  163.0049 C.3     1  UNL1        0.0286
      7 C         140.9801  137.6803  162.8817 C.3     1  UNL1        0.1562
      8 O         140.0192  137.7643  163.8352 O.3     1  UNL1       -0.3572
      9 N         142.6595  137.5272  161.2850 N.3     1  UNL1       -0.2926
     10 H         142.2130  137.7531  160.3962 H       1  UNL1        0.1236
     11 C         143.8886  138.3817  161.3816 C.3     1  UNL1        0.1152
     12 C         143.8027  139.7543  161.9803 C.ar    1  UNL1        0.0765
     13 C         144.6514  140.1104  163.1648 C.ar    1  UNL1        0.0193
     14 C         144.5654  141.4830  163.7635 C.ar    1  UNL1        0.0411
     15 C         143.6308  142.4996  163.1779 C.ar    1  UNL1        0.1708
     16 C         142.7821  142.1435  161.9934 C.ar    1  UNL1        0.1682
     17 N         142.8680  140.7709  161.3946 N.ar    1  UNL1       -0.2304
     18 N         141.8475  143.1601  161.4078 N.am    1  UNL1       -0.2639
     19 C         141.7615  144.5327  162.0065 C.2     1  UNL1        0.2718
     20 O         140.8269  145.5493  161.4208 O.2     1  UNL1       -0.2707
     21 C         142.6103  144.8888  163.1910 C.3     1  UNL1        0.2898
     22 O         143.5449  143.8722  163.7767 O.3     1  UNL1       -0.4628
     23 H         141.2904  142.9264  160.6304 H       1  UNL1        0.1565
     24 C         138.4088  137.8986  165.5031 C.3     1  UNL1        0.0320
     25 C         138.0772  139.2255  166.1191 C.3     1  UNL1        0.0335
     26 C         141.8611  140.2164  168.3441 C.ar    1  UNL1        0.2250
     27 C         142.6528  141.4348  167.9719 C.ar    1  UNL1        0.0593
     28 C         142.1833  142.3229  166.8580 C.ar    1  UNL1        0.0254
     29 C         140.9220  141.9927  166.1163 C.ar    1  UNL1        0.0990
     30 N         140.4525  142.8808  165.0024 N.ar    1  UNL1       -0.2392
     31 C         139.1912  142.5505  164.2608 C.ar    1  UNL1        0.1351
     32 C         138.3994  141.3321  164.6330 C.ar    1  UNL1        0.1502
     33 O         137.1382  141.0018  163.8913 O.3     1  UNL1       -0.5042
     34 C         138.8689  140.4439  165.7469 C.ar    1  UNL1        0.0323
     35 C         140.1303  140.7743  166.4885 C.ar    1  UNL1        0.1009
     36 N         140.5998  139.8861  167.6024 N.ar    1  UNL1       -0.2104
     37 H         136.8449  141.5566  163.1955 H       1  UNL1        0.2922
     38 C         142.9934  139.9247  170.6641 C.3     1  UNL1        0.2542
     39 O         142.3306  139.3283  169.4580 O.3     1  UNL1       -0.4561
@<TRIPOS>BOND
     1    38    39    1
     2    39    26    1
     3    26    27   ar
     4    27    28   ar
     5    28    29   ar
     6    29    30   ar
     7    30    31   ar
     8    31    32   ar
     9    32    33    1
    10    32    34   ar
    11    34    25    1
    12    25    24    1
    13    24     1    1
    14     1     2    1
    15     2     3    1
    16     3     4    1
    17     4     9    1
    18     9    11    1
    19    11    12    1
    20    12    13   ar
    21    13    14   ar
    22    14    15   ar
    23    15    16   ar
    24    16    17   ar
    25    16    18    1
    26    18    19   am
    27    19    20    2
    28    19    21    1
    29    21    22    1
    30     4     5    1
    31     5     6    1
    32     4     7    1
    33     7     8    1
    34    34    35   ar
    35    35    36   ar
    36    36    26   ar
    37    35    29   ar
    38     6     1    1
    39     8     1    1
    40    17    12   ar
    41    22    15    1
    42    33    37    1
    43     9    10    1
    44    18    23    1
@<TRIPOS>MOLECULE
*****
 39 44 0 0 0
SMALL
GASTEIGER

@<TRIPOS>ATOM
      1 C         141.6209  138.4397  164.4415 C.3     1  UNL1        0.0932
      2 C         141.7212  138.9016  163.0179 C.3     1  UNL1        0.0286
      3 C         142.9779  139.5589  162.5295 C.3     1  UNL1        0.0193
      4 C         144.1344  139.7544  163.4647 C.3     1  UNL1        0.0700
      5 C         144.0340  139.2925  164.8883 C.3     1  UNL1        0.0193
      6 C         142.7772  138.6352  165.3767 C.3     1  UNL1        0.0286
      7 C         143.4663  139.3891  163.7781 C.3     1  UNL1        0.1562
      8 O         142.3300  138.7947  164.2197 O.3     1  UNL1       -0.3572
      9 N         145.3911  140.4117  162.9763 N.3     1  UNL1       -0.2926
     10 H         145.4495  140.2277  161.9747 H       1  UNL1        0.1236
     11 C         145.5844  141.8881  163.1573 C.3     1  UNL1        0.1152
     12 C         144.4069  142.8140  163.0778 C.ar    1  UNL1        0.0765
     13 C         143.8421  143.4182  164.3293 C.ar    1  UNL1        0.0193
     14 C         142.6647  144.3440  164.2499 C.ar    1  UNL1        0.0411
     15 C         142.0519  144.6657  162.9191 C.ar    1  UNL1        0.1708
     16 C         142.6167  144.0616  161.6677 C.ar    1  UNL1        0.1682
     17 N         143.7942  143.1357  161.7470 N.ar    1  UNL1       -0.2304
     18 N         142.0039  144.3833  160.3368 N.am    1  UNL1       -0.2639
     19 C         140.8265  145.3091  160.2574 C.2     1  UNL1        0.2718
     20 O         140.2138  145.6309  158.9266 O.2     1  UNL1       -0.2707
     21 C         140.2617  145.9134  161.5089 C.3     1  UNL1        0.2898
     22 O         140.8744  145.5917  162.8397 O.3     1  UNL1       -0.4628
     23 H         142.3746  143.9868  159.5155 H       1  UNL1        0.1565
     24 C         140.3642  137.7824  164.9299 C.3     1  UNL1        0.0320
     25 C         139.3160  138.5953  165.6304 C.3     1  UNL1        0.0335
     26 C         137.7327  141.1216  162.2598 C.ar    1  UNL1        0.2250
     27 C         137.8576  142.6152  162.3194 C.ar    1  UNL1        0.0593
     28 C         138.5101  143.2667  163.5025 C.ar    1  UNL1        0.0254
     29 C         139.0379  142.4246  164.6260 C.ar    1  UNL1        0.0990
     30 N         139.6905  143.0761  165.8091 N.ar    1  UNL1       -0.2392
     31 C         140.2182  142.2340  166.9326 C.ar    1  UNL1        0.1351
     32 C         140.0934  140.7404  166.8730 C.ar    1  UNL1        0.1502
     33 O         140.6212  139.8983  167.9965 O.3     1  UNL1       -0.5042
     34 C         139.4408  140.0889  165.6899 C.ar    1  UNL1        0.0323
     35 C         138.9131  140.9311  164.5664 C.ar    1  UNL1        0.1009
     36 N         138.2605  140.2796  163.3833 N.ar    1  UNL1       -0.2104
     37 H         141.0288  140.3053  168.7356 H       1  UNL1        0.2922
     38 C         137.9089  140.0542  159.8977 C.3     1  UNL1        0.2542
     39 O         137.0802  140.4702  161.0767 O.3     1  UNL1       -0.4561
@<TRIPOS>BOND
     1    38    39    1
     2    39    26    1
     3    26    27   ar
     4    27    28   ar
     5    28    29   ar
     6    29    30   ar
     7    30    31   ar
     8    31    32   ar
     9    32    33    1
    10    32    34   ar
    11    34    25    1
    12    25    24    1
    13    24     1    1
    14     1     2    1
    15     2     3    1
    16     3     4    1
    17     4     9    1
    18     9    11    1
    19    11    12    1
    20    12    13   ar
    21    13    14   ar
    22    14    15   ar
    23    15    16   ar
    24    16    17   ar
    25    16    18    1
    26    18    19   am
    27    19    20    2
    28    19    21    1
    29    21    22    1
    30     4     5    1
    31     5     6    1
    32     4     7    1
    33     7     8    1
    34    34    35   ar
    35    35    36   ar
    36    36    26   ar
    37    35    29   ar
    38     6     1    1
    39     8     1    1
    40    17    12   ar
    41    22    15    1
    42    33    37    1
    43     9    10    1
    44    18    23    1
@<TRIPOS>MOLECULE
*****
 39 44 0 0 0
SMALL
GASTEIGER

@<TRIPOS>ATOM
      1 C         143.6703  142.2447  163.6239 C.3     1  UNL1        0.0932
      2 C         143.6684  142.9109  162.2800 C.3     1  UNL1        0.0286
      3 C         142.8405  144.1410  162.0538 C.3     1  UNL1        0.0193
      4 C         142.0143  144.7051  163.1716 C.3     1  UNL1        0.0700
      5 C         142.0162  144.0389  164.5155 C.3     1  UNL1        0.0193
      6 C         142.8442  142.8087  164.7417 C.3     1  UNL1        0.0286
      7 C         142.4519  144.0291  163.3433 C.3     1  UNL1        0.1562
      8 O         143.2006  142.9168  163.5478 O.3     1  UNL1       -0.3572
      9 N         141.1863  145.9352  162.9453 N.3     1  UNL1       -0.2926
     10 H         141.6957  146.5143  162.2777 H       1  UNL1        0.1236
     11 C         139.7836  145.8106  162.4288 C.3     1  UNL1        0.1152
     12 C         139.1700  144.4544  162.2444 C.ar    1  UNL1        0.0765
     13 C         138.4282  143.8066  163.3759 C.ar    1  UNL1        0.0193
     14 C         137.8145  142.4504  163.1915 C.ar    1  UNL1        0.0411
     15 C         137.9426  141.7419  161.8756 C.ar    1  UNL1        0.1708
     16 C         138.6843  142.3896  160.7441 C.ar    1  UNL1        0.1682
     17 N         139.2980  143.7459  160.9285 N.ar    1  UNL1       -0.2304
     18 N         138.8124  141.6810  159.4282 N.am    1  UNL1       -0.2639
     19 C         138.1987  140.3248  159.2438 C.2     1  UNL1        0.2718
     20 O         138.3268  139.6163  157.9279 O.2     1  UNL1       -0.2707
     21 C         137.4570  139.6771  160.3753 C.3     1  UNL1        0.2898
     22 O         137.3289  140.3856  161.6912 O.3     1  UNL1       -0.4628
     23 H         139.2992  142.1061  158.6856 H       1  UNL1        0.1565
     24 C         144.4982  141.0146  163.8501 C.3     1  UNL1        0.0320
     25 C         143.8586  139.7681  164.3860 C.3     1  UNL1        0.0335
     26 C         139.6604  139.4709  165.9787 C.ar    1  UNL1        0.2250
     27 C         138.6033  138.7675  165.1801 C.ar    1  UNL1        0.0593
     28 C         138.9457  138.1632  163.8506 C.ar    1  UNL1        0.0254
     29 C         140.3450  138.2622  163.3197 C.ar    1  UNL1        0.0990
     30 N         140.6873  137.6579  161.9902 N.ar    1  UNL1       -0.2392
     31 C         142.0867  137.7569  161.4593 C.ar    1  UNL1        0.1351
     32 C         143.1438  138.4603  162.2579 C.ar    1  UNL1        0.1502
     33 O         144.5432  138.5594  161.7270 O.3     1  UNL1       -0.5042
     34 C         142.8015  139.0647  163.5874 C.ar    1  UNL1        0.0323
     35 C         141.4021  138.9656  164.1183 C.ar    1  UNL1        0.1009
     36 N         141.0598  139.5699  165.4478 N.ar    1  UNL1       -0.2104
     37 H         144.7570  138.1819  160.8965 H       1  UNL1        0.2922
     38 C         140.3505  140.1307  168.3950 C.3     1  UNL1        0.2542
     39 O         139.3181  140.0752  167.3082 O.3     1  UNL1       -0.4561
@<TRIPOS>BOND
     1    38    39    1
     2    39    26    1
     3    26    27   ar
     4    27    28   ar
     5    28    29   ar
     6    29    30   ar
     7    30    31   ar
     8    31    32   ar
     9    32    33    1
    10    32    34   ar
    11    34    25    1
    12    25    24    1
    13    24     1    1
    14     1     2    1
    15     2     3    1
    16     3     4    1
    17     4     9    1
    18     9    11    1
    19    11    12    1
    20    12    13   ar
    21    13    14   ar
    22    14    15   ar
    23    15    16   ar
    24    16    17   ar
    25    16    18    1
    26    18    19   am
    27    19    20    2
    28    19    21    1
    29    21    22    1
    30     4     5    1
    31     5     6    1
    32     4     7    1
    33     7     8    1
    34    34    35   ar
    35    35    36   ar
    36    36    26   ar
    37    35    29   ar
    38     6     1    1
    39     8     1    1
    40    17    12   ar
    41    22    15    1
    42    33    37    1
    43     9    10    1
    44    18    23    1
@<TRIPOS>MOLECULE
*****
 39 44 0 0 0
SMALL
GASTEIGER

@<TRIPOS>ATOM
      1 C         142.9522  138.5673  162.8898 C.3     1  UNL1        0.0932
      2 C         142.5581  138.8487  161.4701 C.3     1  UNL1        0.0286
      3 C         141.1793  138.5024  160.9918 C.3     1  UNL1        0.0193
      4 C         140.1944  137.8747  161.9332 C.3     1  UNL1        0.0700
      5 C         140.5885  137.5934  163.3529 C.3     1  UNL1        0.0193
      6 C         141.9674  137.9397  163.8312 C.3     1  UNL1        0.0286
      7 C         140.9384  138.0468  162.2411 C.3     1  UNL1        0.1562
      8 O         142.1852  138.3599  162.6736 O.3     1  UNL1       -0.3572
      9 N         138.8156  137.5284  161.4549 N.3     1  UNL1       -0.2926
     10 H         138.5673  136.6401  161.8904 H       1  UNL1        0.1236
     11 C         137.6752  138.4690  161.7093 C.3     1  UNL1        0.1152
     12 C         137.9154  139.9494  161.7346 C.ar    1  UNL1        0.0765
     13 C         138.1690  140.6901  160.4550 C.ar    1  UNL1        0.0193
     14 C         138.4092  142.1705  160.4803 C.ar    1  UNL1        0.0411
     15 C         138.3958  142.9103  161.7851 C.ar    1  UNL1        0.1708
     16 C         138.1422  142.1697  163.0646 C.ar    1  UNL1        0.1682
     17 N         137.9020  140.6892  163.0394 N.ar    1  UNL1       -0.2304
     18 N         138.1289  142.9095  164.3694 N.am    1  UNL1       -0.2639
     19 C         138.3691  144.3899  164.3947 C.2     1  UNL1        0.2718
     20 O         138.3557  145.1298  165.6995 O.2     1  UNL1       -0.2707
     21 C         138.6227  145.1306  163.1151 C.3     1  UNL1        0.2898
     22 O         138.6360  144.3908  161.8103 O.3     1  UNL1       -0.4628
     23 H         137.9624  142.4235  165.2092 H       1  UNL1        0.1565
     24 C         144.3310  138.9136  163.3681 C.3     1  UNL1        0.0320
     25 C         144.6527  140.3216  163.7734 C.3     1  UNL1        0.0335
     26 C         142.5130  140.1898  167.7299 C.ar    1  UNL1        0.2250
     27 C         141.4051  141.1596  168.0160 C.ar    1  UNL1        0.0593
     28 C         141.0104  142.1734  166.9833 C.ar    1  UNL1        0.0254
     29 C         141.7236  142.2174  165.6645 C.ar    1  UNL1        0.0990
     30 N         141.3290  143.2312  164.6318 N.ar    1  UNL1       -0.2392
     31 C         142.0422  143.2751  163.3130 C.ar    1  UNL1        0.1351
     32 C         143.1502  142.3053  163.0268 C.ar    1  UNL1        0.1502
     33 O         143.8634  142.3492  161.7080 O.3     1  UNL1       -0.5042
     34 C         143.5448  141.2915  164.0595 C.ar    1  UNL1        0.0323
     35 C         142.8315  141.2475  165.3784 C.ar    1  UNL1        0.1009
     36 N         143.2262  140.2337  166.4111 N.ar    1  UNL1       -0.2104
     37 H         143.6168  142.9825  161.0629 H       1  UNL1        0.2922
     38 C         142.2373  139.1721  170.1044 C.3     1  UNL1        0.2542
     39 O         142.9077  139.1760  168.7626 O.3     1  UNL1       -0.4561
@<TRIPOS>BOND
     1    38    39    1
     2    39    26    1
     3    26    27   ar
     4    27    28   ar
     5    28    29   ar
     6    29    30   ar
     7    30    31   ar
     8    31    32   ar
     9    32    33    1
    10    32    34   ar
    11    34    25    1
    12    25    24    1
    13    24     1    1
    14     1     2    1
    15     2     3    1
    16     3     4    1
    17     4     9    1
    18     9    11    1
    19    11    12    1
    20    12    13   ar
    21    13    14   ar
    22    14    15   ar
    23    15    16   ar
    24    16    17   ar
    25    16    18    1
    26    18    19   am
    27    19    20    2
    28    19    21    1
    29    21    22    1
    30     4     5    1
    31     5     6    1
    32     4     7    1
    33     7     8    1
    34    34    35   ar
    35    35    36   ar
    36    36    26   ar
    37    35    29   ar
    38     6     1    1
    39     8     1    1
    40    17    12   ar
    41    22    15    1
    42    33    37    1
    43     9    10    1
    44    18    23    1
@<TRIPOS>MOLECULE
*****
 39 44 0 0 0
SMALL
GASTEIGER

@<TRIPOS>ATOM
      1 C         138.2977  140.0313  163.4393 C.3     1  UNL1        0.0932
      2 C         138.3554  140.5347  162.0275 C.3     1  UNL1        0.0286
      3 C         138.1257  141.9888  161.7398 C.3     1  UNL1        0.0193
      4 C         137.8382  142.9395  162.8639 C.3     1  UNL1        0.0700
      5 C         137.7805  142.4361  164.2757 C.3     1  UNL1        0.0193
      6 C         138.0103  140.9819  164.5634 C.3     1  UNL1        0.0286
      7 C         137.9574  142.1515  163.0708 C.3     1  UNL1        0.1562
      8 O         138.1651  140.8367  163.3309 O.3     1  UNL1       -0.3572
      9 N         137.6085  144.3936  162.5762 N.3     1  UNL1       -0.2926
     10 H         136.9497  144.7320  163.2775 H       1  UNL1        0.1236
     11 C         138.7648  145.3491  162.5715 C.3     1  UNL1        0.1152
     12 C         140.1703  144.8256  162.5907 C.ar    1  UNL1        0.0765
     13 C         140.9304  144.7644  163.8825 C.ar    1  UNL1        0.0193
     14 C         142.3359  144.2410  163.9016 C.ar    1  UNL1        0.0411
     15 C         142.9815  143.7787  162.6290 C.ar    1  UNL1        0.1708
     16 C         142.2215  143.8398  161.3373 C.ar    1  UNL1        0.1682
     17 N         140.8159  144.3633  161.3181 N.ar    1  UNL1       -0.2304
     18 N         142.8670  143.3775  160.0647 N.am    1  UNL1       -0.2639
     19 C         144.2726  142.8540  160.0838 C.2     1  UNL1        0.2718
     20 O         144.9181  142.3917  158.8112 O.2     1  UNL1       -0.2707
     21 C         145.0326  142.7929  161.3756 C.3     1  UNL1        0.2898
     22 O         144.3871  143.2552  162.6482 O.3     1  UNL1       -0.4628
     23 H         142.3682  143.4176  159.2168 H       1  UNL1        0.1565
     24 C         138.5275  138.5772  163.7270 C.3     1  UNL1        0.0320
     25 C         139.6633  138.1582  164.6128 C.3     1  UNL1        0.0335
     26 C         141.2747  141.5493  167.0934 C.ar    1  UNL1        0.2250
     27 C         142.6569  142.0736  166.8393 C.ar    1  UNL1        0.0593
     28 C         143.5019  141.4676  165.7583 C.ar    1  UNL1        0.0254
     29 C         142.9648  140.3372  164.9314 C.ar    1  UNL1        0.0990
     30 N         143.8099  139.7312  163.8504 N.ar    1  UNL1       -0.2392
     31 C         143.2727  138.6009  163.0235 C.ar    1  UNL1        0.1351
     32 C         141.8905  138.0765  163.2776 C.ar    1  UNL1        0.1502
     33 O         141.3534  136.9461  162.4508 O.3     1  UNL1       -0.5042
     34 C         141.0454  138.6825  164.3586 C.ar    1  UNL1        0.0323
     35 C         141.5826  139.8129  165.1855 C.ar    1  UNL1        0.1009
     36 N         140.7376  140.4190  166.2665 N.ar    1  UNL1       -0.2104
     37 H         141.8813  136.5676  161.7755 H       1  UNL1        0.2922
     38 C         140.2743  141.4501  169.4891 C.3     1  UNL1        0.2542
     39 O         140.4296  142.1554  168.1744 O.3     1  UNL1       -0.4561
@<TRIPOS>BOND
     1    38    39    1
     2    39    26    1
     3    26    27   ar
     4    27    28   ar
     5    28    29   ar
     6    29    30   ar
     7    30    31   ar
     8    31    32   ar
     9    32    33    1
    10    32    34   ar
    11    34    25    1
    12    25    24    1
    13    24     1    1
    14     1     2    1
    15     2     3    1
    16     3     4    1
    17     4     9    1
    18     9    11    1
    19    11    12    1
    20    12    13   ar
    21    13    14   ar
    22    14    15   ar
    23    15    16   ar
    24    16    17   ar
    25    16    18    1
    26    18    19   am
    27    19    20    2
    28    19    21    1
    29    21    22    1
    30     4     5    1
    31     5     6    1
    32     4     7    1
    33     7     8    1
    34    34    35   ar
    35    35    36   ar
    36    36    26   ar
    37    35    29   ar
    38     6     1    1
    39     8     1    1
    40    17    12   ar
    41    22    15    1
    42    33    37    1
    43     9    10    1
    44    18    23    1
