@<TRIPOS>MOLECULE
*****
 29 33 0 0 0
SMALL
GASTEIGER

@<TRIPOS>ATOM
      1 C         141.7786  142.1304  165.2350 C.ar    1  UNL1        0.1318
      2 C         142.0745  142.1312  166.7055 C.ar    1  UNL1        0.0358
      3 C         141.1966  141.3621  167.6476 C.ar    1  UNL1        0.0217
      4 C         140.0226  140.5922  167.1193 C.ar    1  UNL1        0.0223
      5 C         139.1446  139.8231  168.0614 C.ar    1  UNL1        0.0222
      6 C         137.9708  139.0532  167.5331 C.ar    1  UNL1        0.0990
      7 N         137.6748  139.0524  166.0625 N.ar    1  UNL1       -0.2408
      8 C         138.5528  139.8215  165.1204 C.ar    1  UNL1        0.1159
      9 C         139.7267  140.5914  165.6488 C.ar    1  UNL1        0.1018
     10 N         140.6047  141.3605  164.7066 N.ar    1  UNL1       -0.2291
     11 C         144.0521  140.7548  163.8424 C.3     1  UNL1        0.0241
     12 C         143.7933  142.2117  163.5966 C.3     1  UNL1        0.1038
     13 C         144.6713  142.9808  162.6545 C.3     1  UNL1        0.1618
     14 O         144.4125  144.4377  162.4086 O.3     1  UNL1       -0.3502
     15 C         143.2758  145.1255  163.1049 C.3     1  UNL1        0.1636
     16 C         142.3979  144.3564  164.0470 C.3     1  UNL1        0.1242
     17 N         142.6566  142.8995  164.2928 N.pl3   1  UNL1       -0.2898
     18 C         141.4925  141.3629  169.1182 C.ar    1  UNL1        0.0796
     19 C         142.1936  140.2755  169.8770 C.ar    1  UNL1        0.0412
     20 C         142.2737  140.6918  171.3159 C.ar    1  UNL1        0.1217
     21 N         141.6221  142.0366  171.4463 N.ar    1  UNL1       -0.1676
     22 N         141.1392  142.4513  170.0880 N.ar    1  UNL1       -0.2488
     23 C         140.4280  143.7300  169.7576 C.3     1  UNL1        0.1537
     24 C         138.2569  139.8207  163.6499 C.ar    1  UNL1        0.0945
     25 C         138.7935  138.8469  162.6430 C.ar    1  UNL1        0.0425
     26 C         138.2407  139.2179  161.2989 C.ar    1  UNL1        0.1215
     27 N         137.3622  140.4209  161.4750 N.ar    1  UNL1       -0.1710
     28 N         137.3723  140.7935  162.9280 N.ar    1  UNL1       -0.2742
     29 H         136.8840  141.5446  163.3361 H       1  UNL1        0.1890
@<TRIPOS>BOND
     1    12    11    1
     2    12    13    1
     3    13    14    1
     4    14    15    1
     5    15    16    1
     6    16    17    1
     7    17     1    1
     8     1     2   ar
     9     2     3   ar
    10     3    18    1
    11    18    19   ar
    12    19    20   ar
    13    20    21   ar
    14    21    22   ar
    15    22    23    1
    16     3     4   ar
    17     4     5   ar
    18     5     6   ar
    19     6     7   ar
    20     7     8   ar
    21     8    24    1
    22    24    25   ar
    23    25    26   ar
    24    26    27   ar
    25    27    28   ar
    26     8     9   ar
    27     9    10   ar
    28    17    12    1
    29    10     1   ar
    30    22    18   ar
    31     9     4   ar
    32    28    24   ar
    33    28    29    1
@<TRIPOS>MOLECULE
*****
 29 33 0 0 0
SMALL
GASTEIGER

@<TRIPOS>ATOM
      1 C         141.6158  141.9423  165.1193 C.ar    1  UNL1        0.1318
      2 C         141.7131  142.1250  166.6049 C.ar    1  UNL1        0.0358
      3 C         140.8007  141.3588  167.5162 C.ar    1  UNL1        0.0217
      4 C         139.7909  140.4099  166.9418 C.ar    1  UNL1        0.0223
      5 C         138.8785  139.6437  167.8531 C.ar    1  UNL1        0.0222
      6 C         137.8688  138.6948  167.2787 C.ar    1  UNL1        0.0990
      7 N         137.7715  138.5120  165.7930 N.ar    1  UNL1       -0.2408
      8 C         138.6839  139.2782  164.8818 C.ar    1  UNL1        0.1159
      9 C         139.6936  140.2271  165.4562 C.ar    1  UNL1        0.1018
     10 N         140.6061  140.9933  164.5449 N.ar    1  UNL1       -0.2291
     11 C         140.8104  144.6557  164.1250 C.3     1  UNL1        0.0241
     12 C         142.1256  144.0652  163.7109 C.3     1  UNL1        0.1038
     13 C         143.0381  144.8313  162.7997 C.3     1  UNL1        0.1618
     14 O         144.3533  144.2408  162.3856 O.3     1  UNL1       -0.3502
     15 C         144.7560  142.8841  162.8827 C.3     1  UNL1        0.1636
     16 C         143.8435  142.1179  163.7939 C.3     1  UNL1        0.1242
     17 N         142.5283  142.7085  164.2080 N.pl3   1  UNL1       -0.2898
     18 C         140.8980  141.5416  169.0018 C.ar    1  UNL1        0.0796
     19 C         140.2712  142.6483  169.7970 C.ar    1  UNL1        0.0412
     20 C         140.6250  142.4405  171.2397 C.ar    1  UNL1        0.1217
     21 N         141.4705  141.2052  171.3363 N.ar    1  UNL1       -0.1676
     22 N         141.6392  140.6497  169.9532 N.ar    1  UNL1       -0.2488
     23 C         142.4132  139.4184  169.5860 C.3     1  UNL1        0.1537
     24 C         138.5866  139.0954  163.3961 C.ar    1  UNL1        0.0945
     25 C         137.8658  140.0008  162.4418 C.ar    1  UNL1        0.0425
     26 C         138.0267  139.4401  161.0598 C.ar    1  UNL1        0.1215
     27 N         138.8469  138.1883  161.1601 N.ar    1  UNL1       -0.1710
     28 N         139.1929  137.9752  162.6040 N.ar    1  UNL1       -0.2742
     29 H         139.7247  137.2309  162.9679 H       1  UNL1        0.1890
@<TRIPOS>BOND
     1    12    11    1
     2    12    13    1
     3    13    14    1
     4    14    15    1
     5    15    16    1
     6    16    17    1
     7    17     1    1
     8     1     2   ar
     9     2     3   ar
    10     3    18    1
    11    18    19   ar
    12    19    20   ar
    13    20    21   ar
    14    21    22   ar
    15    22    23    1
    16     3     4   ar
    17     4     5   ar
    18     5     6   ar
    19     6     7   ar
    20     7     8   ar
    21     8    24    1
    22    24    25   ar
    23    25    26   ar
    24    26    27   ar
    25    27    28   ar
    26     8     9   ar
    27     9    10   ar
    28    17    12    1
    29    10     1   ar
    30    22    18   ar
    31     9     4   ar
    32    28    24   ar
    33    28    29    1
@<TRIPOS>MOLECULE
*****
 29 33 0 0 0
SMALL
GASTEIGER

@<TRIPOS>ATOM
      1 C         141.2223  142.0191  165.2450 C.ar    1  UNL1        0.1318
      2 C         140.5990  141.3222  164.0721 C.ar    1  UNL1        0.0358
      3 C         139.5487  140.2745  164.2936 C.ar    1  UNL1        0.0217
      4 C         139.1217  139.9236  165.6881 C.ar    1  UNL1        0.0223
      5 C         138.0714  138.8759  165.9097 C.ar    1  UNL1        0.0222
      6 C         137.6445  138.5251  167.3042 C.ar    1  UNL1        0.0990
      7 N         138.2678  139.2220  168.4771 N.ar    1  UNL1       -0.2408
      8 C         139.3181  140.2697  168.2555 C.ar    1  UNL1        0.1159
      9 C         139.7450  140.6205  166.8611 C.ar    1  UNL1        0.1018
     10 N         140.7954  141.6683  166.6395 N.ar    1  UNL1       -0.2291
     11 C         140.5768  144.4764  163.6497 C.3     1  UNL1        0.0241
     12 C         141.9499  144.2955  164.2257 C.3     1  UNL1        0.1038
     13 C         143.0002  145.3432  164.0042 C.3     1  UNL1        0.1618
     14 O         144.3733  145.1623  164.5802 O.3     1  UNL1       -0.3502
     15 C         144.6961  143.9337  165.3779 C.3     1  UNL1        0.1636
     16 C         143.6458  142.8860  165.5994 C.3     1  UNL1        0.1242
     17 N         142.2727  143.0669  165.0234 N.pl3   1  UNL1       -0.2898
     18 C         138.9254  139.5776  163.1207 C.ar    1  UNL1        0.0796
     19 C         137.7683  140.0804  162.3092 C.ar    1  UNL1        0.0412
     20 C         137.4775  139.0690  161.2403 C.ar    1  UNL1        0.1217
     21 N         138.4548  137.9411  161.3911 N.ar    1  UNL1       -0.1676
     22 N         139.3496  138.2554  162.5532 N.ar    1  UNL1       -0.2488
     23 C         140.4717  137.3981  163.0591 C.3     1  UNL1        0.1537
     24 C         139.9414  140.9666  169.4285 C.ar    1  UNL1        0.0945
     25 C         141.3918  140.9267  169.8089 C.ar    1  UNL1        0.0425
     26 C         141.5706  141.7612  171.0425 C.ar    1  UNL1        0.1215
     27 N         140.2307  142.3169  171.4244 N.ar    1  UNL1       -0.1710
     28 N         139.2239  141.8258  170.4269 N.ar    1  UNL1       -0.2742
     29 H         138.2611  142.0313  170.4274 H       1  UNL1        0.1890
@<TRIPOS>BOND
     1    12    11    1
     2    12    13    1
     3    13    14    1
     4    14    15    1
     5    15    16    1
     6    16    17    1
     7    17     1    1
     8     1     2   ar
     9     2     3   ar
    10     3    18    1
    11    18    19   ar
    12    19    20   ar
    13    20    21   ar
    14    21    22   ar
    15    22    23    1
    16     3     4   ar
    17     4     5   ar
    18     5     6   ar
    19     6     7   ar
    20     7     8   ar
    21     8    24    1
    22    24    25   ar
    23    25    26   ar
    24    26    27   ar
    25    27    28   ar
    26     8     9   ar
    27     9    10   ar
    28    17    12    1
    29    10     1   ar
    30    22    18   ar
    31     9     4   ar
    32    28    24   ar
    33    28    29    1
@<TRIPOS>MOLECULE
*****
 29 33 0 0 0
SMALL
GASTEIGER

@<TRIPOS>ATOM
      1 C         140.7878  142.6475  164.8033 C.ar    1  UNL1        0.1318
      2 C         140.5227  142.7242  166.2777 C.ar    1  UNL1        0.0358
      3 C         141.1315  141.7125  167.2028 C.ar    1  UNL1        0.0217
      4 C         142.0053  140.6240  166.6535 C.ar    1  UNL1        0.0223
      5 C         142.6141  139.6123  167.5786 C.ar    1  UNL1        0.0222
      6 C         143.4878  138.5239  167.0293 C.ar    1  UNL1        0.0990
      7 N         143.7528  138.4471  165.5549 N.ar    1  UNL1       -0.2408
      8 C         143.1441  139.4589  164.6298 C.ar    1  UNL1        0.1159
      9 C         142.2703  140.5473  165.1791 C.ar    1  UNL1        0.1018
     10 N         141.6615  141.5591  164.2540 N.ar    1  UNL1       -0.2291
     11 C         142.4286  144.9575  163.8176 C.3     1  UNL1        0.0241
     12 C         140.9994  144.8143  163.3854 C.3     1  UNL1        0.1038
     13 C         140.3905  145.8260  162.4604 C.3     1  UNL1        0.1618
     14 O         138.9613  145.6827  162.0281 O.3     1  UNL1       -0.3502
     15 C         138.1409  144.5277  162.5210 C.3     1  UNL1        0.1636
     16 C         138.7497  143.5160  163.4460 C.3     1  UNL1        0.1242
     17 N         140.1789  143.6593  163.8782 N.pl3   1  UNL1       -0.2898
     18 C         140.8665  141.7892  168.6772 C.ar    1  UNL1        0.0796
     19 C         141.5525  142.7019  169.6500 C.ar    1  UNL1        0.0412
     20 C         140.9789  142.4435  171.0118 C.ar    1  UNL1        0.1217
     21 N         139.9384  141.3711  170.8805 N.ar    1  UNL1       -0.1676
     22 N         139.8689  140.9668  169.4377 N.ar    1  UNL1       -0.2488
     23 C         138.9612  139.9231  168.8573 C.3     1  UNL1        0.1537
     24 C         143.4091  139.3821  163.1554 C.ar    1  UNL1        0.0945
     25 C         143.1693  138.1899  162.2773 C.ar    1  UNL1        0.0425
     26 C         143.5724  138.5551  160.8794 C.ar    1  UNL1        0.1215
     27 N         144.0614  139.9731  160.8935 N.ar    1  UNL1       -0.1710
     28 N         143.9605  140.4842  162.3001 N.ar    1  UNL1       -0.2742
     29 H         144.2120  141.3849  162.6080 H       1  UNL1        0.1890
@<TRIPOS>BOND
     1    12    11    1
     2    12    13    1
     3    13    14    1
     4    14    15    1
     5    15    16    1
     6    16    17    1
     7    17     1    1
     8     1     2   ar
     9     2     3   ar
    10     3    18    1
    11    18    19   ar
    12    19    20   ar
    13    20    21   ar
    14    21    22   ar
    15    22    23    1
    16     3     4   ar
    17     4     5   ar
    18     5     6   ar
    19     6     7   ar
    20     7     8   ar
    21     8    24    1
    22    24    25   ar
    23    25    26   ar
    24    26    27   ar
    25    27    28   ar
    26     8     9   ar
    27     9    10   ar
    28    17    12    1
    29    10     1   ar
    30    22    18   ar
    31     9     4   ar
    32    28    24   ar
    33    28    29    1
@<TRIPOS>MOLECULE
*****
 29 33 0 0 0
SMALL
GASTEIGER

@<TRIPOS>ATOM
      1 C         140.6598  142.5379  165.0068 C.ar    1  UNL1        0.1318
      2 C         140.6006  142.7428  166.4915 C.ar    1  UNL1        0.0358
      3 C         141.2597  141.7582  167.4114 C.ar    1  UNL1        0.0217
      4 C         141.9779  140.5686  166.8465 C.ar    1  UNL1        0.0223
      5 C         142.6369  139.5840  167.7663 C.ar    1  UNL1        0.0222
      6 C         143.3551  138.3944  167.2014 C.ar    1  UNL1        0.0990
      7 N         143.4142  138.1895  165.7166 N.ar    1  UNL1       -0.2408
      8 C         142.7551  139.1741  164.7968 C.ar    1  UNL1        0.1159
      9 C         142.0370  140.3636  165.3617 C.ar    1  UNL1        0.1018
     10 N         141.3779  141.3483  164.4418 N.ar    1  UNL1       -0.2291
     11 C         142.2596  144.7757  163.8098 C.3     1  UNL1        0.0241
     12 C         140.8006  144.6415  163.4885 C.3     1  UNL1        0.1038
     13 C         140.1415  145.6261  162.5687 C.3     1  UNL1        0.1618
     14 O         138.6825  145.4918  162.2473 O.3     1  UNL1       -0.3502
     15 C         137.8826  144.3730  162.8458 C.3     1  UNL1        0.1636
     16 C         138.5417  143.3883  163.7656 C.3     1  UNL1        0.1242
     17 N         140.0007  143.5226  164.0869 N.pl3   1  UNL1       -0.2898
     18 C         141.2006  141.9631  168.8961 C.ar    1  UNL1        0.0796
     19 C         139.9805  141.8237  169.7575 C.ar    1  UNL1        0.0412
     20 C         140.3770  142.1179  171.1740 C.ar    1  UNL1        0.1217
     21 N         141.8422  142.4391  171.1880 N.ar    1  UNL1       -0.1676
     22 N         142.3511  142.3434  169.7802 N.ar    1  UNL1       -0.2488
     23 C         143.7628  142.5856  169.3347 C.3     1  UNL1        0.1537
     24 C         142.8143  138.9692  163.3120 C.ar    1  UNL1        0.0945
     25 C         144.0615  138.8703  162.4846 C.ar    1  UNL1        0.0425
     26 C         143.6546  138.6672  161.0552 C.ar    1  UNL1        0.1215
     27 N         142.1559  138.6405  160.9992 N.ar    1  UNL1       -0.1710
     28 N         141.6366  138.8271  162.3940 N.ar    1  UNL1       -0.2742
     29 H         140.6890  138.8520  162.6602 H       1  UNL1        0.1890
@<TRIPOS>BOND
     1    12    11    1
     2    12    13    1
     3    13    14    1
     4    14    15    1
     5    15    16    1
     6    16    17    1
     7    17     1    1
     8     1     2   ar
     9     2     3   ar
    10     3    18    1
    11    18    19   ar
    12    19    20   ar
    13    20    21   ar
    14    21    22   ar
    15    22    23    1
    16     3     4   ar
    17     4     5   ar
    18     5     6   ar
    19     6     7   ar
    20     7     8   ar
    21     8    24    1
    22    24    25   ar
    23    25    26   ar
    24    26    27   ar
    25    27    28   ar
    26     8     9   ar
    27     9    10   ar
    28    17    12    1
    29    10     1   ar
    30    22    18   ar
    31     9     4   ar
    32    28    24   ar
    33    28    29    1
@<TRIPOS>MOLECULE
*****
 29 33 0 0 0
SMALL
GASTEIGER

@<TRIPOS>ATOM
      1 C         141.1336  141.7244  167.1834 C.ar    1  UNL1        0.1318
      2 C         141.9670  142.5316  166.2327 C.ar    1  UNL1        0.0358
      3 C         141.9129  142.2477  164.7608 C.ar    1  UNL1        0.0217
      4 C         141.0252  141.1565  164.2396 C.ar    1  UNL1        0.0223
      5 C         140.9710  140.8726  162.7677 C.ar    1  UNL1        0.0222
      6 C         140.0834  139.7815  162.2466 C.ar    1  UNL1        0.0990
      7 N         139.2500  138.9744  163.1973 N.ar    1  UNL1       -0.2408
      8 C         139.3042  139.2583  164.6692 C.ar    1  UNL1        0.1159
      9 C         140.1918  140.3494  165.1903 C.ar    1  UNL1        0.1018
     10 N         140.2460  140.6333  166.6622 N.ar    1  UNL1       -0.2291
     11 C         142.7280  139.9441  168.9968 C.3     1  UNL1        0.0241
     12 C         141.9850  141.1182  169.5620 C.3     1  UNL1        0.1038
     13 C         142.0391  141.4022  171.0338 C.3     1  UNL1        0.1618
     14 O         141.2962  142.5763  171.5990 O.3     1  UNL1       -0.3502
     15 C         140.4990  143.4665  170.6923 C.3     1  UNL1        0.1636
     16 C         140.4448  143.1825  169.2205 C.3     1  UNL1        0.1242
     17 N         141.1878  142.0084  168.6553 N.pl3   1  UNL1       -0.2898
     18 C         142.7463  143.0548  163.8101 C.ar    1  UNL1        0.0796
     19 C         144.1486  142.7397  163.3807 C.ar    1  UNL1        0.0412
     20 C         144.5927  143.8090  162.4271 C.ar    1  UNL1        0.1217
     21 N         143.4650  144.7850  162.2671 N.ar    1  UNL1       -0.1676
     22 N         142.3238  144.3189  163.1218 N.ar    1  UNL1       -0.2488
     23 C         140.9937  144.9977  163.2634 C.3     1  UNL1        0.1537
     24 C         138.4707  138.4511  165.6199 C.ar    1  UNL1        0.0945
     25 C         138.3154  136.9592  165.6082 C.ar    1  UNL1        0.0425
     26 C         137.3950  136.5802  166.7303 C.ar    1  UNL1        0.1215
     27 N         136.9814  137.8378  167.4355 N.ar    1  UNL1       -0.1710
     28 N         137.6463  138.9941  166.7492 N.ar    1  UNL1       -0.2742
     29 H         137.5571  139.9428  166.9966 H       1  UNL1        0.1890
@<TRIPOS>BOND
     1    12    11    1
     2    12    13    1
     3    13    14    1
     4    14    15    1
     5    15    16    1
     6    16    17    1
     7    17     1    1
     8     1     2   ar
     9     2     3   ar
    10     3    18    1
    11    18    19   ar
    12    19    20   ar
    13    20    21   ar
    14    21    22   ar
    15    22    23    1
    16     3     4   ar
    17     4     5   ar
    18     5     6   ar
    19     6     7   ar
    20     7     8   ar
    21     8    24    1
    22    24    25   ar
    23    25    26   ar
    24    26    27   ar
    25    27    28   ar
    26     8     9   ar
    27     9    10   ar
    28    17    12    1
    29    10     1   ar
    30    22    18   ar
    31     9     4   ar
    32    28    24   ar
    33    28    29    1
@<TRIPOS>MOLECULE
*****
 29 33 0 0 0
SMALL
GASTEIGER

@<TRIPOS>ATOM
      1 C         140.8762  142.3058  163.8429 C.ar    1  UNL1        0.1318
      2 C         141.3654  141.2432  162.9041 C.ar    1  UNL1        0.0358
      3 C         142.1109  140.0561  163.4379 C.ar    1  UNL1        0.0217
      4 C         142.3672  139.9316  164.9106 C.ar    1  UNL1        0.0223
      5 C         143.1127  138.7445  165.4444 C.ar    1  UNL1        0.0222
      6 C         143.3689  138.6200  166.9171 C.ar    1  UNL1        0.0990
      7 N         142.8796  139.6826  167.8560 N.ar    1  UNL1       -0.2408
      8 C         142.1341  140.8697  167.3222 C.ar    1  UNL1        0.1159
      9 C         141.8779  140.9942  165.8495 C.ar    1  UNL1        0.1018
     10 N         141.1324  142.1813  165.3156 N.ar    1  UNL1       -0.2291
     11 C         137.8778  142.3570  163.9291 C.3     1  UNL1        0.0241
     12 C         138.6315  143.5185  163.3521 C.3     1  UNL1        0.1038
     13 C         137.8860  144.7056  162.8183 C.3     1  UNL1        0.1618
     14 O         138.6397  145.8671  162.2413 O.3     1  UNL1       -0.3502
     15 C         140.1389  145.8415  162.1982 C.3     1  UNL1        0.1636
     16 C         140.8843  144.6545  162.7321 C.3     1  UNL1        0.1242
     17 N         140.1306  143.4929  163.3090 N.pl3   1  UNL1       -0.2898
     18 C         142.6002  138.9935  162.4990 C.ar    1  UNL1        0.0796
     19 C         144.0217  138.7838  162.0685 C.ar    1  UNL1        0.0412
     20 C         144.0539  137.6147  161.1292 C.ar    1  UNL1        0.1217
     21 N         142.6523  137.1018  160.9793 N.ar    1  UNL1       -0.1676
     22 N         141.7539  137.9540  161.8258 N.ar    1  UNL1       -0.2488
     23 C         140.2697  137.7945  161.9733 C.3     1  UNL1        0.1537
     24 C         141.6449  141.9323  168.2610 C.ar    1  UNL1        0.0945
     25 C         142.3812  142.4594  169.4568 C.ar    1  UNL1        0.0425
     26 C         141.5248  143.5073  170.1038 C.ar    1  UNL1        0.1215
     27 N         140.2591  143.6278  169.3078 N.ar    1  UNL1       -0.1710
     28 N         140.3334  142.6544  168.1689 N.ar    1  UNL1       -0.2742
     29 H         139.6426  142.5142  167.4816 H       1  UNL1        0.1890
@<TRIPOS>BOND
     1    12    11    1
     2    12    13    1
     3    13    14    1
     4    14    15    1
     5    15    16    1
     6    16    17    1
     7    17     1    1
     8     1     2   ar
     9     2     3   ar
    10     3    18    1
    11    18    19   ar
    12    19    20   ar
    13    20    21   ar
    14    21    22   ar
    15    22    23    1
    16     3     4   ar
    17     4     5   ar
    18     5     6   ar
    19     6     7   ar
    20     7     8   ar
    21     8    24    1
    22    24    25   ar
    23    25    26   ar
    24    26    27   ar
    25    27    28   ar
    26     8     9   ar
    27     9    10   ar
    28    17    12    1
    29    10     1   ar
    30    22    18   ar
    31     9     4   ar
    32    28    24   ar
    33    28    29    1
@<TRIPOS>MOLECULE
*****
 29 33 0 0 0
SMALL
GASTEIGER

@<TRIPOS>ATOM
      1 C         141.5003  140.3741  163.1013 C.ar    1  UNL1        0.1318
      2 C         141.1373  140.0220  164.5135 C.ar    1  UNL1        0.0358
      3 C         140.4456  141.0292  165.3835 C.ar    1  UNL1        0.0217
      4 C         140.1167  142.3886  164.8413 C.ar    1  UNL1        0.0223
      5 C         139.4250  143.3959  165.7113 C.ar    1  UNL1        0.0222
      6 C         139.0962  144.7552  165.1692 C.ar    1  UNL1        0.0990
      7 N         139.4592  145.1074  163.7570 N.ar    1  UNL1       -0.2408
      8 C         140.1510  144.1001  162.8870 C.ar    1  UNL1        0.1159
      9 C         140.4797  142.7408  163.4292 C.ar    1  UNL1        0.1018
     10 N         141.1715  141.7335  162.5591 N.ar    1  UNL1       -0.2291
     11 C         144.4091  139.7734  163.5234 C.3     1  UNL1        0.0241
     12 C         143.6464  139.0665  162.4424 C.3     1  UNL1        0.1038
     13 C         144.3381  138.0592  161.5724 C.3     1  UNL1        0.1618
     14 O         143.5755  137.3523  160.4913 O.3     1  UNL1       -0.3502
     15 C         142.1211  137.6527  160.2803 C.3     1  UNL1        0.1636
     16 C         141.4294  138.6599  161.1503 C.3     1  UNL1        0.1242
     17 N         142.1921  139.3668  162.2313 N.pl3   1  UNL1       -0.2898
     18 C         140.0826  140.6770  166.7957 C.ar    1  UNL1        0.0796
     19 C         140.7497  141.1986  168.0338 C.ar    1  UNL1        0.0412
     20 C         140.0682  140.5854  169.2210 C.ar    1  UNL1        0.1217
     21 N         138.9798  139.6848  168.7167 N.ar    1  UNL1       -0.1676
     22 N         138.9887  139.7415  167.2177 N.ar    1  UNL1       -0.2488
     23 C         138.0657  138.9938  166.3017 C.3     1  UNL1        0.1537
     24 C         140.5139  144.4523  161.4748 C.ar    1  UNL1        0.0945
     25 C         139.7495  144.0623  160.2446 C.ar    1  UNL1        0.0425
     26 C         140.4682  144.6253  159.0543 C.ar    1  UNL1        0.1215
     27 N         141.6768  145.3631  159.5490 N.ar    1  UNL1       -0.1710
     28 N         141.7051  145.2562  161.0449 N.ar    1  UNL1       -0.2742
     29 H         142.3859  145.6454  161.6401 H       1  UNL1        0.1890
@<TRIPOS>BOND
     1    12    11    1
     2    12    13    1
     3    13    14    1
     4    14    15    1
     5    15    16    1
     6    16    17    1
     7    17     1    1
     8     1     2   ar
     9     2     3   ar
    10     3    18    1
    11    18    19   ar
    12    19    20   ar
    13    20    21   ar
    14    21    22   ar
    15    22    23    1
    16     3     4   ar
    17     4     5   ar
    18     5     6   ar
    19     6     7   ar
    20     7     8   ar
    21     8    24    1
    22    24    25   ar
    23    25    26   ar
    24    26    27   ar
    25    27    28   ar
    26     8     9   ar
    27     9    10   ar
    28    17    12    1
    29    10     1   ar
    30    22    18   ar
    31     9     4   ar
    32    28    24   ar
    33    28    29    1
@<TRIPOS>MOLECULE
*****
 29 33 0 0 0
SMALL
GASTEIGER

@<TRIPOS>ATOM
      1 C         140.8820  142.0331  166.6600 C.ar    1  UNL1        0.1318
      2 C         140.3067  143.0721  165.7437 C.ar    1  UNL1        0.0358
      3 C         140.7833  143.1671  164.3246 C.ar    1  UNL1        0.0217
      4 C         141.8351  142.2232  163.8218 C.ar    1  UNL1        0.0223
      5 C         142.3116  142.3183  162.4027 C.ar    1  UNL1        0.0222
      6 C         143.3634  141.3744  161.9000 C.ar    1  UNL1        0.0990
      7 N         143.9386  140.3354  162.8163 N.ar    1  UNL1       -0.2408
      8 C         143.4621  140.2403  164.2354 C.ar    1  UNL1        0.1159
      9 C         142.4103  141.1842  164.7381 C.ar    1  UNL1        0.1018
     10 N         141.9337  141.0892  166.1573 N.ar    1  UNL1       -0.2291
     11 C         139.2999  139.6462  167.5544 C.3     1  UNL1        0.0241
     12 C         139.6144  140.7446  168.5263 C.3     1  UNL1        0.1038
     13 C         139.1378  140.6497  169.9454 C.3     1  UNL1        0.1618
     14 O         139.4523  141.7481  170.9173 O.3     1  UNL1       -0.3502
     15 C         140.2433  142.9415  170.4701 C.3     1  UNL1        0.1636
     16 C         140.7198  143.0365  169.0510 C.3     1  UNL1        0.1242
     17 N         140.4054  141.9381  168.0791 N.pl3   1  UNL1       -0.2898
     18 C         140.2081  144.2061  163.4082 C.ar    1  UNL1        0.0796
     19 C         140.9030  145.4496  162.9386 C.ar    1  UNL1        0.0412
     20 C         139.9614  146.1960  162.0408 C.ar    1  UNL1        0.1217
     21 N         138.6843  145.4138  161.9555 N.ar    1  UNL1       -0.1676
     22 N         138.8368  144.1839  162.8006 N.ar    1  UNL1       -0.2488
     23 C         137.8000  143.1189  163.0026 C.3     1  UNL1        0.1537
     24 C         144.0373  139.2014  165.1517 C.ar    1  UNL1        0.0945
     25 C         145.4565  138.7157  165.1534 C.ar    1  UNL1        0.0425
     26 C         145.5907  137.6798  166.2300 C.ar    1  UNL1        0.1215
     27 N         144.2544  137.5253  166.8936 N.ar    1  UNL1       -0.1710
     28 N         143.2944  138.4657  166.2272 N.ar    1  UNL1       -0.2742
     29 H         142.3436  138.5799  166.4556 H       1  UNL1        0.1890
@<TRIPOS>BOND
     1    12    11    1
     2    12    13    1
     3    13    14    1
     4    14    15    1
     5    15    16    1
     6    16    17    1
     7    17     1    1
     8     1     2   ar
     9     2     3   ar
    10     3    18    1
    11    18    19   ar
    12    19    20   ar
    13    20    21   ar
    14    21    22   ar
    15    22    23    1
    16     3     4   ar
    17     4     5   ar
    18     5     6   ar
    19     6     7   ar
    20     7     8   ar
    21     8    24    1
    22    24    25   ar
    23    25    26   ar
    24    26    27   ar
    25    27    28   ar
    26     8     9   ar
    27     9    10   ar
    28    17    12    1
    29    10     1   ar
    30    22    18   ar
    31     9     4   ar
    32    28    24   ar
    33    28    29    1
