@<TRIPOS>MOLECULE
*****
 34 37 0 0 0
SMALL
GASTEIGER

@<TRIPOS>ATOM
      1 C         140.7508  138.3193  161.0027 C.ar    1  UNL1        0.0729
      2 C         139.3441  138.6341  160.5879 C.ar    1  UNL1        0.1048
      3 N         138.9919  138.7157  159.1322 N.ar    1  UNL1       -0.2290
      4 C         140.0464  138.4825  158.0912 C.ar    1  UNL1        0.1318
      5 C         141.4530  138.1676  158.5059 C.ar    1  UNL1        0.0348
      6 C         141.8052  138.0860  159.9617 C.ar    1  UNL1        0.0090
      7 N         139.6941  138.5641  156.6354 N.pl3   1  UNL1       -0.2907
      8 C         139.7251  139.8020  155.7888 C.3     1  UNL1        0.0948
      9 C         139.2992  139.4252  154.4008 C.3     1  UNL1        0.0524
     10 C         139.0049  137.9544  154.3895 C.3     1  UNL1        0.1319
     11 O         138.5469  137.1559  153.2052 O.3     1  UNL1       -0.3827
     12 C         139.2489  137.4222  155.7706 C.3     1  UNL1        0.1213
     13 H         138.4671  137.7385  152.4337 H       1  UNL1        0.2104
     14 C         142.5075  137.9344  157.4649 C.ar    1  UNL1        0.0411
     15 C         143.2917  139.0909  156.9195 C.ar    1  UNL1        0.1023
     16 N         144.3462  138.8576  155.8785 N.ar    1  UNL1       -0.2224
     17 C         144.6165  137.4679  155.3829 C.ar    1  UNL1        0.1989
     18 N         143.8322  136.3114  155.9284 N.ar    1  UNL1       -0.2224
     19 C         142.7778  136.5447  156.9694 C.ar    1  UNL1        0.1023
     20 O         140.9615  136.9372  163.1926 O.2     1  UNL1       -0.2698
     21 C         141.1030  138.2377  162.4585 C.2     1  UNL1        0.2510
     22 N         141.5968  139.4564  163.1801 N.am    1  UNL1       -0.2803
     23 H         141.6897  140.3099  162.6983 H       1  UNL1        0.1552
     24 C         141.9491  139.3748  164.6359 C.ar    1  UNL1        0.0507
     25 C         143.2204  138.7033  165.0634 C.ar    1  UNL1        0.0178
     26 C         143.5726  138.6217  166.5192 C.ar    1  UNL1        0.0384
     27 C         142.6535  139.2116  167.5474 C.ar    1  UNL1        0.1453
     28 C         141.3822  139.8831  167.1199 C.ar    1  UNL1        0.0384
     29 C         141.0299  139.9647  165.6642 C.ar    1  UNL1        0.0178
     30 O         143.0058  139.1300  169.0032 O.3     1  UNL1       -0.4184
     31 C         142.3259  140.0310  169.9911 C.3     1  UNL1        0.4893
     32 F         141.6459  140.9321  170.9789 F       1  UNL1       -0.1486
     33 F         141.3086  138.9633  170.2649 F       1  UNL1       -0.1486
     34 CL        143.3432  141.0987  169.7173 Cl      1  UNL1        0.0004
@<TRIPOS>BOND
     1    20    21    2
     2    21    22   am
     3    22    24    1
     4    24    25   ar
     5    25    26   ar
     6    26    27   ar
     7    27    30    1
     8    30    31    1
     9    31    32    1
    10    31    33    1
    11    31    34    1
    12    27    28   ar
    13    28    29   ar
    14    21     1    1
    15     1     2   ar
    16     2     3   ar
    17     3     4   ar
    18     4     7    1
    19     7     8    1
    20     8     9    1
    21     9    10    1
    22    10    11    1
    23    10    12    1
    24     4     5   ar
    25     5    14    1
    26    14    15   ar
    27    15    16   ar
    28    16    17   ar
    29    17    18   ar
    30    18    19   ar
    31     5     6   ar
    32    29    24   ar
    33     6     1   ar
    34    12     7    1
    35    19    14   ar
    36    22    23    1
    37    11    13    1
@<TRIPOS>MOLECULE
*****
 34 37 0 0 0
SMALL
GASTEIGER

@<TRIPOS>ATOM
      1 C         142.4620  142.9299  164.0069 C.ar    1  UNL1        0.0729
      2 C         143.5448  143.2178  165.0041 C.ar    1  UNL1        0.1048
      3 N         143.5487  142.5169  166.3303 N.ar    1  UNL1       -0.2290
      4 C         142.4698  141.5281  166.6592 C.ar    1  UNL1        0.1318
      5 C         141.3870  141.2402  165.6619 C.ar    1  UNL1        0.0348
      6 C         141.3830  141.9411  164.3358 C.ar    1  UNL1        0.0090
      7 N         142.4738  140.8272  167.9854 N.pl3   1  UNL1       -0.2907
      8 C         142.6882  139.3591  168.2061 C.3     1  UNL1        0.0948
      9 C         142.6110  139.0959  169.6808 C.3     1  UNL1        0.0524
     10 C         142.3487  140.4014  170.3715 C.3     1  UNL1        0.1319
     11 O         142.1978  140.6016  171.8504 O.3     1  UNL1       -0.3827
     12 C         142.2639  141.4714  169.3237 C.3     1  UNL1        0.1213
     13 H         142.2960  139.7497  172.3037 H       1  UNL1        0.2104
     14 C         140.3080  140.2514  165.9908 C.ar    1  UNL1        0.0411
     15 C         139.9879  139.1438  165.0313 C.ar    1  UNL1        0.1023
     16 N         138.9090  138.1550  165.3602 N.ar    1  UNL1       -0.2224
     17 C         138.1502  138.2738  166.6487 C.ar    1  UNL1        0.1989
     18 N         138.4703  139.3814  167.6082 N.ar    1  UNL1       -0.2224
     19 C         139.5492  140.3702  167.2793 C.ar    1  UNL1        0.1023
     20 O         143.4201  144.7523  162.4222 O.2     1  UNL1       -0.2698
     21 C         142.4580  143.6308  162.6807 C.2     1  UNL1        0.2510
     22 N         141.4920  143.2103  161.6130 N.am    1  UNL1       -0.2803
     23 H         140.8606  142.4742  161.7826 H       1  UNL1        0.1552
     24 C         141.4881  143.9112  160.2868 C.ar    1  UNL1        0.0507
     25 C         140.4165  144.9119  159.9706 C.ar    1  UNL1        0.0178
     26 C         140.4126  145.6128  158.6444 C.ar    1  UNL1        0.0384
     27 C         141.4803  145.3128  157.6344 C.ar    1  UNL1        0.1453
     28 C         142.5519  144.3121  157.9506 C.ar    1  UNL1        0.0384
     29 C         142.5558  143.6112  159.2768 C.ar    1  UNL1        0.0178
     30 O         141.4763  146.0137  156.3082 O.3     1  UNL1       -0.4184
     31 C         140.2363  146.0150  155.4643 C.3     1  UNL1        0.4893
     32 F         138.9962  146.0163  154.6203 F       1  UNL1       -0.1486
     33 F         139.9377  147.4173  155.9050 F       1  UNL1       -0.1486
     34 CL        140.5348  144.6127  155.0235 Cl      1  UNL1        0.0004
@<TRIPOS>BOND
     1    20    21    2
     2    21    22   am
     3    22    24    1
     4    24    25   ar
     5    25    26   ar
     6    26    27   ar
     7    27    30    1
     8    30    31    1
     9    31    32    1
    10    31    33    1
    11    31    34    1
    12    27    28   ar
    13    28    29   ar
    14    21     1    1
    15     1     2   ar
    16     2     3   ar
    17     3     4   ar
    18     4     7    1
    19     7     8    1
    20     8     9    1
    21     9    10    1
    22    10    11    1
    23    10    12    1
    24     4     5   ar
    25     5    14    1
    26    14    15   ar
    27    15    16   ar
    28    16    17   ar
    29    17    18   ar
    30    18    19   ar
    31     5     6   ar
    32    29    24   ar
    33     6     1   ar
    34    12     7    1
    35    19    14   ar
    36    22    23    1
    37    11    13    1
@<TRIPOS>MOLECULE
*****
 34 37 0 0 0
SMALL
GASTEIGER

@<TRIPOS>ATOM
      1 C         143.3788  141.5680  158.7087 C.ar    1  UNL1        0.0729
      2 C         142.4869  142.7739  158.7134 C.ar    1  UNL1        0.1048
      3 N         141.3877  142.8898  159.7274 N.ar    1  UNL1       -0.2290
      4 C         141.1803  141.7997  160.7367 C.ar    1  UNL1        0.1318
      5 C         142.0723  140.5937  160.7320 C.ar    1  UNL1        0.0348
      6 C         143.1715  140.4779  159.7180 C.ar    1  UNL1        0.0090
      7 N         140.0810  141.9156  161.7507 N.pl3   1  UNL1       -0.2907
      8 C         140.1770  142.6032  163.0804 C.3     1  UNL1        0.0948
      9 C         138.8481  142.4768  163.7645 C.3     1  UNL1        0.0524
     10 C         137.9308  141.7111  162.8576 C.3     1  UNL1        0.1319
     11 O         136.5023  141.3548  163.1449 O.3     1  UNL1       -0.3827
     12 C         138.6928  141.3643  161.6130 C.3     1  UNL1        0.1213
     13 H         136.2529  141.6972  164.0175 H       1  UNL1        0.2104
     14 C         141.8649  139.5036  161.7413 C.ar    1  UNL1        0.0411
     15 C         140.9452  138.3598  161.4316 C.ar    1  UNL1        0.1023
     16 N         140.7379  137.2697  162.4409 N.ar    1  UNL1       -0.2224
     17 C         141.4503  137.3233  163.7598 C.ar    1  UNL1        0.1989
     18 N         142.3700  138.4671  164.0694 N.ar    1  UNL1       -0.2224
     19 C         142.5773  139.5572  163.0602 C.ar    1  UNL1        0.1023
     20 O         144.9656  140.0991  157.2684 O.2     1  UNL1       -0.2698
     21 C         144.4782  141.4521  157.6947 C.2     1  UNL1        0.2510
     22 N         145.0900  142.6891  157.1071 N.am    1  UNL1       -0.2803
     23 H         144.7700  143.5772  157.3870 H       1  UNL1        0.1552
     24 C         146.1893  142.5732  156.0931 C.ar    1  UNL1        0.0507
     25 C         145.8794  142.7105  154.6319 C.ar    1  UNL1        0.0178
     26 C         146.9787  142.5946  153.6180 C.ar    1  UNL1        0.0384
     27 C         148.3879  142.3415  154.0653 C.ar    1  UNL1        0.1453
     28 C         148.6978  142.2042  155.5264 C.ar    1  UNL1        0.0384
     29 C         147.5985  142.3201  156.5404 C.ar    1  UNL1        0.0178
     30 O         149.4872  142.2256  153.0513 O.3     1  UNL1       -0.4184
     31 C         150.5674  143.2647  152.9941 C.3     1  UNL1        0.4893
     32 F         151.6477  144.3039  152.9370 F       1  UNL1       -0.1486
     33 F         149.5298  144.3464  153.0495 F       1  UNL1       -0.1486
     34 CL        151.6050  142.1829  152.9388 Cl      1  UNL1        0.0004
@<TRIPOS>BOND
     1    20    21    2
     2    21    22   am
     3    22    24    1
     4    24    25   ar
     5    25    26   ar
     6    26    27   ar
     7    27    30    1
     8    30    31    1
     9    31    32    1
    10    31    33    1
    11    31    34    1
    12    27    28   ar
    13    28    29   ar
    14    21     1    1
    15     1     2   ar
    16     2     3   ar
    17     3     4   ar
    18     4     7    1
    19     7     8    1
    20     8     9    1
    21     9    10    1
    22    10    11    1
    23    10    12    1
    24     4     5   ar
    25     5    14    1
    26    14    15   ar
    27    15    16   ar
    28    16    17   ar
    29    17    18   ar
    30    18    19   ar
    31     5     6   ar
    32    29    24   ar
    33     6     1   ar
    34    12     7    1
    35    19    14   ar
    36    22    23    1
    37    11    13    1
@<TRIPOS>MOLECULE
*****
 34 37 0 0 0
SMALL
GASTEIGER

@<TRIPOS>ATOM
      1 C         142.4233  143.2445  159.6360 C.ar    1  UNL1        0.0729
      2 C         141.1690  144.0462  159.4525 C.ar    1  UNL1        0.1048
      3 N         140.2226  144.2316  160.6014 N.ar    1  UNL1       -0.2290
      4 C         140.5306  143.6152  161.9337 C.ar    1  UNL1        0.1318
      5 C         141.7850  142.8134  162.1172 C.ar    1  UNL1        0.0348
      6 C         142.7313  142.6281  160.9683 C.ar    1  UNL1        0.0090
      7 N         139.5842  143.8006  163.0826 N.pl3   1  UNL1       -0.2907
      8 C         138.3851  142.9509  163.3831 C.3     1  UNL1        0.0948
      9 C         137.7305  143.4933  164.6189 C.3     1  UNL1        0.0524
     10 C         138.5250  144.6783  165.0822 C.3     1  UNL1        0.1319
     11 O         138.2263  145.5247  166.2840 O.3     1  UNL1       -0.3827
     12 C         139.6706  144.8681  164.1328 C.3     1  UNL1        0.1213
     13 H         137.4309  145.1892  166.7263 H       1  UNL1        0.2104
     14 C         142.0930  142.1970  163.4496 C.ar    1  UNL1        0.0411
     15 C         141.5836  140.8246  163.7767 C.ar    1  UNL1        0.1023
     16 N         141.8916  140.2082  165.1091 N.ar    1  UNL1       -0.2224
     17 C         142.7090  140.9642  166.1143 C.ar    1  UNL1        0.1989
     18 N         143.2183  142.3366  165.7871 N.ar    1  UNL1       -0.2224
     19 C         142.9103  142.9530  164.4547 C.ar    1  UNL1        0.1023
     20 O         143.0692  143.6880  157.1588 O.2     1  UNL1       -0.2698
     21 C         143.3698  143.0591  158.4870 C.2     1  UNL1        0.2510
     22 N         144.6167  142.2449  158.6664 N.am    1  UNL1       -0.2803
     23 H         144.8140  141.8322  159.5382 H       1  UNL1        0.1552
     24 C         145.5632  142.0595  157.5175 C.ar    1  UNL1        0.0507
     25 C         145.2180  141.1123  156.4068 C.ar    1  UNL1        0.0178
     26 C         146.1645  140.9270  155.2580 C.ar    1  UNL1        0.0384
     27 C         147.4560  141.6888  155.2198 C.ar    1  UNL1        0.1453
     28 C         147.8012  142.6360  156.3305 C.ar    1  UNL1        0.0384
     29 C         146.8547  142.8214  157.4793 C.ar    1  UNL1        0.0178
     30 O         148.4025  141.5034  154.0709 O.3     1  UNL1       -0.4184
     31 C         149.6027  142.3931  153.9368 C.3     1  UNL1        0.4893
     32 F         150.8029  143.2828  153.8027 F       1  UNL1       -0.1486
     33 F         148.7400  143.4677  153.3445 F       1  UNL1       -0.1486
     34 CL        150.4654  141.3185  154.5292 Cl      1  UNL1        0.0004
@<TRIPOS>BOND
     1    20    21    2
     2    21    22   am
     3    22    24    1
     4    24    25   ar
     5    25    26   ar
     6    26    27   ar
     7    27    30    1
     8    30    31    1
     9    31    32    1
    10    31    33    1
    11    31    34    1
    12    27    28   ar
    13    28    29   ar
    14    21     1    1
    15     1     2   ar
    16     2     3   ar
    17     3     4   ar
    18     4     7    1
    19     7     8    1
    20     8     9    1
    21     9    10    1
    22    10    11    1
    23    10    12    1
    24     4     5   ar
    25     5    14    1
    26    14    15   ar
    27    15    16   ar
    28    16    17   ar
    29    17    18   ar
    30    18    19   ar
    31     5     6   ar
    32    29    24   ar
    33     6     1   ar
    34    12     7    1
    35    19    14   ar
    36    22    23    1
    37    11    13    1
@<TRIPOS>MOLECULE
*****
 34 37 0 0 0
SMALL
GASTEIGER

@<TRIPOS>ATOM
      1 C         142.5116  139.6409  161.7015 C.ar    1  UNL1        0.0729
      2 C         142.5808  138.4025  162.5450 C.ar    1  UNL1        0.1048
      3 N         141.6997  138.2665  163.7512 N.ar    1  UNL1       -0.2290
      4 C         140.7494  139.3689  164.1140 C.ar    1  UNL1        0.1318
      5 C         140.6801  140.6073  163.2705 C.ar    1  UNL1        0.0348
      6 C         141.5613  140.7433  162.0643 C.ar    1  UNL1        0.0090
      7 N         139.8682  139.2328  165.3203 N.pl3   1  UNL1       -0.2907
      8 C         140.0548  139.9356  166.6322 C.3     1  UNL1        0.0948
      9 C         138.9478  139.5072  167.5492 C.3     1  UNL1        0.0524
     10 C         138.0769  138.5396  166.8040 C.3     1  UNL1        0.1319
     11 O         136.8522  137.8607  167.3419 O.3     1  UNL1       -0.3827
     12 C         138.6458  138.3700  165.4264 C.3     1  UNL1        0.1213
     13 H         136.7020  138.1429  168.2577 H       1  UNL1        0.2104
     14 C         139.7298  141.7096  163.6333 C.ar    1  UNL1        0.0411
     15 C         140.2087  142.8754  164.4466 C.ar    1  UNL1        0.1023
     16 N         139.2584  143.9778  164.8093 N.ar    1  UNL1       -0.2224
     17 C         137.8291  143.9144  164.3588 C.ar    1  UNL1        0.1989
     18 N         137.3501  142.7486  163.5455 N.ar    1  UNL1       -0.2224
     19 C         138.3005  141.6462  163.1828 C.ar    1  UNL1        0.1023
     20 O         144.4747  138.7701  160.2393 O.2     1  UNL1       -0.2698
     21 C         143.3928  139.7770  160.4952 C.2     1  UNL1        0.2510
     22 N         143.1919  140.9200  159.5448 N.am    1  UNL1       -0.2803
     23 H         142.4818  141.5808  159.7127 H       1  UNL1        0.1552
     24 C         144.0731  141.0561  158.3385 C.ar    1  UNL1        0.0507
     25 C         145.1234  142.1260  158.2938 C.ar    1  UNL1        0.0178
     26 C         146.0045  142.2620  157.0875 C.ar    1  UNL1        0.0384
     27 C         145.8352  141.3282  155.9259 C.ar    1  UNL1        0.1453
     28 C         144.7849  140.2582  155.9706 C.ar    1  UNL1        0.0384
     29 C         143.9038  140.1222  157.1769 C.ar    1  UNL1        0.0178
     30 O         146.7164  141.4642  154.7196 O.3     1  UNL1       -0.4184
     31 C         147.2830  142.8035  154.3520 C.3     1  UNL1        0.4893
     32 F         147.8496  144.1429  153.9843 F       1  UNL1       -0.1486
     33 F         145.8986  143.3167  154.0875 F       1  UNL1       -0.1486
     34 CL        148.6674  142.2904  154.6165 Cl      1  UNL1        0.0004
@<TRIPOS>BOND
     1    20    21    2
     2    21    22   am
     3    22    24    1
     4    24    25   ar
     5    25    26   ar
     6    26    27   ar
     7    27    30    1
     8    30    31    1
     9    31    32    1
    10    31    33    1
    11    31    34    1
    12    27    28   ar
    13    28    29   ar
    14    21     1    1
    15     1     2   ar
    16     2     3   ar
    17     3     4   ar
    18     4     7    1
    19     7     8    1
    20     8     9    1
    21     9    10    1
    22    10    11    1
    23    10    12    1
    24     4     5   ar
    25     5    14    1
    26    14    15   ar
    27    15    16   ar
    28    16    17   ar
    29    17    18   ar
    30    18    19   ar
    31     5     6   ar
    32    29    24   ar
    33     6     1   ar
    34    12     7    1
    35    19    14   ar
    36    22    23    1
    37    11    13    1
@<TRIPOS>MOLECULE
*****
 34 37 0 0 0
SMALL
GASTEIGER

@<TRIPOS>ATOM
      1 C         141.0710  144.4966  161.5168 C.ar    1  UNL1        0.0729
      2 C         140.1857  145.6277  161.0844 C.ar    1  UNL1        0.1048
      3 N         139.9229  145.8590  159.6259 N.ar    1  UNL1       -0.2290
      4 C         140.5453  144.9592  158.5997 C.ar    1  UNL1        0.1318
      5 C         141.4305  143.8282  159.0321 C.ar    1  UNL1        0.0348
      6 C         141.6934  143.5969  160.4906 C.ar    1  UNL1        0.0090
      7 N         140.2825  145.1906  157.1411 N.pl3   1  UNL1       -0.2907
      8 C         141.0635  146.0981  156.2376 C.3     1  UNL1        0.0948
      9 C         140.4562  146.0235  154.8680 C.3     1  UNL1        0.0524
     10 C         139.2998  145.0698  154.9252 C.3     1  UNL1        0.1319
     11 O         138.4074  144.6964  153.7787 O.3     1  UNL1       -0.3827
     12 C         139.1924  144.5550  156.3300 C.3     1  UNL1        0.1213
     13 H         138.6913  145.1692  152.9807 H       1  UNL1        0.2104
     14 C         142.0529  142.9284  158.0059 C.ar    1  UNL1        0.0411
     15 C         143.4035  143.2560  157.4415 C.ar    1  UNL1        0.1023
     16 N         144.0259  142.3562  156.4153 N.ar    1  UNL1       -0.2224
     17 C         143.2978  141.1288  155.9536 C.ar    1  UNL1        0.1989
     18 N         141.9472  140.8012  156.5180 N.ar    1  UNL1       -0.2224
     19 C         141.3248  141.7010  157.5442 C.ar    1  UNL1        0.1023
     20 O         141.8174  145.3929  163.8384 O.2     1  UNL1       -0.2698
     21 C         141.3338  144.2653  162.9754 C.2     1  UNL1        0.2510
     22 N         141.1131  142.9064  163.5709 N.am    1  UNL1       -0.2803
     23 H         140.7957  142.1664  163.0045 H       1  UNL1        0.1552
     24 C         141.3760  142.6751  165.0295 C.ar    1  UNL1        0.0507
     25 C         140.2510  142.7639  166.0177 C.ar    1  UNL1        0.0178
     26 C         140.5139  142.5325  167.4762 C.ar    1  UNL1        0.0384
     27 C         141.9018  142.2124  167.9466 C.ar    1  UNL1        0.1453
     28 C         143.0268  142.1236  166.9584 C.ar    1  UNL1        0.0384
     29 C         142.7639  142.3549  165.4999 C.ar    1  UNL1        0.0178
     30 O         142.1646  141.9810  169.4052 O.3     1  UNL1       -0.4184
     31 C         142.8668  143.0294  170.2162 C.3     1  UNL1        0.4893
     32 F         143.5689  144.0779  171.0273 F       1  UNL1       -0.1486
     33 F         141.6008  143.8317  170.2752 F       1  UNL1       -0.1486
     34 CL        144.1328  142.2271  170.1572 Cl      1  UNL1        0.0004
@<TRIPOS>BOND
     1    20    21    2
     2    21    22   am
     3    22    24    1
     4    24    25   ar
     5    25    26   ar
     6    26    27   ar
     7    27    30    1
     8    30    31    1
     9    31    32    1
    10    31    33    1
    11    31    34    1
    12    27    28   ar
    13    28    29   ar
    14    21     1    1
    15     1     2   ar
    16     2     3   ar
    17     3     4   ar
    18     4     7    1
    19     7     8    1
    20     8     9    1
    21     9    10    1
    22    10    11    1
    23    10    12    1
    24     4     5   ar
    25     5    14    1
    26    14    15   ar
    27    15    16   ar
    28    16    17   ar
    29    17    18   ar
    30    18    19   ar
    31     5     6   ar
    32    29    24   ar
    33     6     1   ar
    34    12     7    1
    35    19    14   ar
    36    22    23    1
    37    11    13    1
@<TRIPOS>MOLECULE
*****
 34 37 0 0 0
SMALL
GASTEIGER

@<TRIPOS>ATOM
      1 C         139.5889  143.4918  161.3907 C.ar    1  UNL1        0.0729
      2 C         140.2447  144.8352  161.2677 C.ar    1  UNL1        0.1048
      3 N         140.5044  145.4217  159.9118 N.ar    1  UNL1       -0.2290
      4 C         140.1083  144.6648  158.6789 C.ar    1  UNL1        0.1318
      5 C         139.4525  143.3214  158.8018 C.ar    1  UNL1        0.0348
      6 C         139.1928  142.7349  160.1577 C.ar    1  UNL1        0.0090
      7 N         140.3681  145.2514  157.3229 N.pl3   1  UNL1       -0.2907
      8 C         141.5996  145.0415  156.4927 C.3     1  UNL1        0.0948
      9 C         141.4346  145.8111  155.2158 C.3     1  UNL1        0.0524
     10 C         140.1010  146.4967  155.2570 C.3     1  UNL1        0.1319
     11 O         139.5273  147.3743  154.1841 O.3     1  UNL1       -0.3827
     12 C         139.4419  146.1508  156.5592 C.3     1  UNL1        0.1213
     13 H         140.1545  147.4354  153.4467 H       1  UNL1        0.2104
     14 C         139.0564  142.5645  157.5688 C.ar    1  UNL1        0.0411
     15 C         140.0365  141.6407  156.9086 C.ar    1  UNL1        0.1023
     16 N         139.6403  140.8838  155.6757 N.ar    1  UNL1       -0.2224
     17 C         138.2641  141.0507  155.1029 C.ar    1  UNL1        0.1989
     18 N         137.2841  141.9746  155.7631 N.ar    1  UNL1       -0.2224
     19 C         137.6802  142.7315  156.9960 C.ar    1  UNL1        0.1023
     20 O         137.9986  143.1075  163.4090 O.2     1  UNL1       -0.2698
     21 C         139.3291  142.9052  162.7466 C.2     1  UNL1        0.2510
     22 N         140.3999  142.1163  163.4402 N.am    1  UNL1       -0.2803
     23 H         141.2732  141.9835  163.0055 H       1  UNL1        0.1552
     24 C         140.1402  141.5297  164.7961 C.ar    1  UNL1        0.0507
     25 C         139.4735  140.1917  164.9193 C.ar    1  UNL1        0.0178
     26 C         139.2138  139.6052  166.2752 C.ar    1  UNL1        0.0384
     27 C         139.6208  140.3567  167.5079 C.ar    1  UNL1        0.1453
     28 C         140.2874  141.6948  167.3848 C.ar    1  UNL1        0.0384
     29 C         140.5471  142.2813  166.0289 C.ar    1  UNL1        0.0178
     30 O         139.3610  139.7701  168.8639 O.3     1  UNL1       -0.4184
     31 C         139.9405  140.4195  170.0855 C.3     1  UNL1        0.4893
     32 F         140.5200  141.0690  171.3072 F       1  UNL1       -0.1486
     33 F         138.7516  141.3306  170.1652 F       1  UNL1       -0.1486
     34 CL        141.1295  139.5085  170.0058 Cl      1  UNL1        0.0004
@<TRIPOS>BOND
     1    20    21    2
     2    21    22   am
     3    22    24    1
     4    24    25   ar
     5    25    26   ar
     6    26    27   ar
     7    27    30    1
     8    30    31    1
     9    31    32    1
    10    31    33    1
    11    31    34    1
    12    27    28   ar
    13    28    29   ar
    14    21     1    1
    15     1     2   ar
    16     2     3   ar
    17     3     4   ar
    18     4     7    1
    19     7     8    1
    20     8     9    1
    21     9    10    1
    22    10    11    1
    23    10    12    1
    24     4     5   ar
    25     5    14    1
    26    14    15   ar
    27    15    16   ar
    28    16    17   ar
    29    17    18   ar
    30    18    19   ar
    31     5     6   ar
    32    29    24   ar
    33     6     1   ar
    34    12     7    1
    35    19    14   ar
    36    22    23    1
    37    11    13    1
@<TRIPOS>MOLECULE
*****
 34 37 0 0 0
SMALL
GASTEIGER

@<TRIPOS>ATOM
      1 C         143.2111  139.6697  158.4602 C.ar    1  UNL1        0.0729
      2 C         143.1923  141.0882  157.9727 C.ar    1  UNL1        0.1048
      3 N         143.1952  142.2197  158.9574 N.ar    1  UNL1       -0.2290
      4 C         143.2169  141.9328  160.4295 C.ar    1  UNL1        0.1318
      5 C         143.2358  140.5143  160.9170 C.ar    1  UNL1        0.0348
      6 C         143.2329  139.3828  159.9323 C.ar    1  UNL1        0.0090
      7 N         143.2198  143.0644  161.4142 N.pl3   1  UNL1       -0.2907
      8 C         144.4178  143.5936  162.1456 C.3     1  UNL1        0.0948
      9 C         143.9637  144.7217  163.0238 C.3     1  UNL1        0.0524
     10 C         142.4850  144.8896  162.8351 C.3     1  UNL1        0.1319
     11 O         141.6183  145.9038  163.5209 O.3     1  UNL1       -0.3827
     12 C         142.0254  143.8653  161.8404 C.3     1  UNL1        0.1213
     13 H         142.1618  146.4451  164.1146 H       1  UNL1        0.2104
     14 C         143.2575  140.2274  162.3891 C.ar    1  UNL1        0.0411
     15 C         144.5606  139.9593  163.0818 C.ar    1  UNL1        0.1023
     16 N         144.5824  139.6724  164.5540 N.ar    1  UNL1       -0.2224
     17 C         143.3009  139.6536  165.3334 C.ar    1  UNL1        0.1989
     18 N         141.9978  139.9217  164.6407 N.ar    1  UNL1       -0.2224
     19 C         141.9761  140.2086  163.1686 C.ar    1  UNL1        0.1023
     20 O         144.0108  138.6410  156.2124 O.2     1  UNL1       -0.2698
     21 C         143.2082  138.5381  157.4755 C.2     1  UNL1        0.2510
     22 N         142.4029  137.3037  157.7539 N.am    1  UNL1       -0.2803
     23 H         141.8761  137.2362  158.5829 H       1  UNL1        0.1552
     24 C         142.4000  136.1721  156.7692 C.ar    1  UNL1        0.0507
     25 C         143.4608  135.1140  156.8396 C.ar    1  UNL1        0.0178
     26 C         143.4578  133.9824  155.8549 C.ar    1  UNL1        0.0384
     27 C         142.3941  133.9091  154.7999 C.ar    1  UNL1        0.1453
     28 C         141.3333  134.9672  154.7295 C.ar    1  UNL1        0.0384
     29 C         141.3362  136.0987  155.7142 C.ar    1  UNL1        0.0178
     30 O         142.3912  132.7775  153.8152 O.3     1  UNL1       -0.4184
     31 C         142.3824  131.3590  154.3028 C.3     1  UNL1        0.4893
     32 F         142.3735  129.9405  154.7905 F       1  UNL1       -0.1486
     33 F         141.1654  131.6508  155.1298 F       1  UNL1       -0.1486
     34 CL        143.5993  131.0671  153.4759 Cl      1  UNL1        0.0004
@<TRIPOS>BOND
     1    20    21    2
     2    21    22   am
     3    22    24    1
     4    24    25   ar
     5    25    26   ar
     6    26    27   ar
     7    27    30    1
     8    30    31    1
     9    31    32    1
    10    31    33    1
    11    31    34    1
    12    27    28   ar
    13    28    29   ar
    14    21     1    1
    15     1     2   ar
    16     2     3   ar
    17     3     4   ar
    18     4     7    1
    19     7     8    1
    20     8     9    1
    21     9    10    1
    22    10    11    1
    23    10    12    1
    24     4     5   ar
    25     5    14    1
    26    14    15   ar
    27    15    16   ar
    28    16    17   ar
    29    17    18   ar
    30    18    19   ar
    31     5     6   ar
    32    29    24   ar
    33     6     1   ar
    34    12     7    1
    35    19    14   ar
    36    22    23    1
    37    11    13    1
@<TRIPOS>MOLECULE
*****
 34 37 0 0 0
SMALL
GASTEIGER

@<TRIPOS>ATOM
      1 C         141.3819  144.0206  158.7940 C.ar    1  UNL1        0.0729
      2 C         142.5134  143.0520  158.6169 C.ar    1  UNL1        0.1048
      3 N         142.6497  141.8804  159.5435 N.ar    1  UNL1       -0.2290
      4 C         141.6544  141.6774  160.6472 C.ar    1  UNL1        0.1318
      5 C         140.5228  142.6459  160.8243 C.ar    1  UNL1        0.0348
      6 C         140.3866  143.8176  159.8977 C.ar    1  UNL1        0.0090
      7 N         141.7907  140.5057  161.5739 N.pl3   1  UNL1       -0.2907
      8 C         142.5480  140.4889  162.8686 C.3     1  UNL1        0.0948
      9 C         142.4190  139.1180  163.4634 C.3     1  UNL1        0.0524
     10 C         141.5819  138.2874  162.5363 C.3     1  UNL1        0.1319
     11 O         141.2001  136.8513  162.7410 O.3     1  UNL1       -0.3827
     12 C         141.1936  139.1450  161.3685 C.3     1  UNL1        0.1213
     13 H         141.5796  136.5316  163.5745 H       1  UNL1        0.2104
     14 C         139.5275  142.4429  161.9280 C.ar    1  UNL1        0.0411
     15 C         138.2160  141.7739  161.6415 C.ar    1  UNL1        0.1023
     16 N         137.2207  141.5709  162.7452 N.ar    1  UNL1       -0.2224
     17 C         137.5369  142.0368  164.1354 C.ar    1  UNL1        0.1989
     18 N         138.8485  142.7058  164.4219 N.ar    1  UNL1       -0.2224
     19 C         139.8438  142.9089  163.3182 C.ar    1  UNL1        0.1023
     20 O         142.3348  146.2210  157.7937 O.2     1  UNL1       -0.2698
     21 C         141.2456  145.1923  157.8673 C.2     1  UNL1        0.2510
     22 N         140.0201  145.3353  157.0143 N.am    1  UNL1       -0.2803
     23 H         139.3052  144.6602  157.0626 H       1  UNL1        0.1552
     24 C         139.8838  146.5070  156.0877 C.ar    1  UNL1        0.0507
     25 C         140.5897  146.5026  154.7642 C.ar    1  UNL1        0.0178
     26 C         140.4533  147.6743  153.8376 C.ar    1  UNL1        0.0384
     27 C         139.6111  148.8504  154.2345 C.ar    1  UNL1        0.1453
     28 C         138.9053  148.8548  155.5580 C.ar    1  UNL1        0.0384
     29 C         139.0416  147.6831  156.4846 C.ar    1  UNL1        0.0178
     30 O         139.4748  150.0221  153.3079 O.3     1  UNL1       -0.4184
     31 C         139.9149  151.3853  153.7528 C.3     1  UNL1        0.4893
     32 F         140.3549  152.7486  154.1977 F       1  UNL1       -0.1486
     33 F         138.4952  151.7338  154.0889 F       1  UNL1       -0.1486
     34 CL        141.3345  151.0367  153.4166 Cl      1  UNL1        0.0004
@<TRIPOS>BOND
     1    20    21    2
     2    21    22   am
     3    22    24    1
     4    24    25   ar
     5    25    26   ar
     6    26    27   ar
     7    27    30    1
     8    30    31    1
     9    31    32    1
    10    31    33    1
    11    31    34    1
    12    27    28   ar
    13    28    29   ar
    14    21     1    1
    15     1     2   ar
    16     2     3   ar
    17     3     4   ar
    18     4     7    1
    19     7     8    1
    20     8     9    1
    21     9    10    1
    22    10    11    1
    23    10    12    1
    24     4     5   ar
    25     5    14    1
    26    14    15   ar
    27    15    16   ar
    28    16    17   ar
    29    17    18   ar
    30    18    19   ar
    31     5     6   ar
    32    29    24   ar
    33     6     1   ar
    34    12     7    1
    35    19    14   ar
    36    22    23    1
    37    11    13    1
