@<TRIPOS>MOLECULE
*****
 29 33 0 0 0
SMALL
GASTEIGER

@<TRIPOS>ATOM
      1 C         138.0011  138.5753  166.9362 C.3     1  UNL1        0.0285
      2 C         139.2295  139.1758  166.3193 C.3     1  UNL1        0.1321
      3 C         139.6206  138.8099  164.9182 C.3     1  UNL1        0.2279
      4 O         140.8489  139.4104  164.3014 O.3     1  UNL1       -0.4707
      5 C         141.6862  140.3769  165.0856 C.ar    1  UNL1        0.1675
      6 C         142.9145  140.9774  164.4687 C.ar    1  UNL1        0.0837
      7 C         143.7517  141.9438  165.2529 C.ar    1  UNL1        0.0177
      8 C         143.3606  142.3098  166.6541 C.ar    1  UNL1        0.0029
      9 C         142.1323  141.7093  167.2710 C.ar    1  UNL1        0.0191
     10 C         141.7411  142.0752  168.6720 C.ar    1  UNL1        0.0074
     11 C         140.5128  141.4747  169.2889 C.ar    1  UNL1        0.0702
     12 C         139.6756  140.5082  168.5047 C.ar    1  UNL1        0.2620
     13 O         138.4472  139.9077  169.1216 O.2     1  UNL1       -0.2669
     14 N         140.0667  140.1423  167.1035 N.ar    1  UNL1       -0.2909
     15 C         141.2950  140.7428  166.4867 C.ar    1  UNL1        0.0978
     16 N         143.3056  140.6115  163.0676 N.pl3   1  UNL1       -0.3051
     17 C         143.8210  139.2770  162.6160 C.3     1  UNL1        0.0910
     18 C         144.0840  139.3565  161.1414 C.3     1  UNL1        0.0244
     19 C         143.7312  140.7401  160.6815 C.3     1  UNL1        0.0344
     20 C         143.2502  141.5157  161.8721 C.3     1  UNL1        0.0921
     21 C         143.8403  141.2573  159.2778 C.3     1  UNL1        0.0406
     22 N         144.0905  139.9722  158.5455 N.3     1  UNL1       -0.3231
     23 C         143.8626  142.2206  158.1283 C.3     1  UNL1        0.0156
     24 C         143.6281  142.7218  159.5225 C.3     1  UNL1        0.0156
     25 H         144.1044  139.1990  159.2106 H       1  UNL1        0.1188
     26 H         144.9889  140.0239  158.0653 H       1  UNL1        0.1188
     27 C         140.1217  141.8406  170.6901 C.2     1  UNL1        0.0775
     28 O         140.6324  141.0332  171.8464 O.co2   1  UNL1       -0.5444
     29 O         139.2199  143.0140  170.9348 O.co2   1  UNL1       -0.5444
@<TRIPOS>UNITY_ATOM_ATTR
28 1
charge -1
@<TRIPOS>BOND
     1     2     1    1
     2     2     3    1
     3     3     4    1
     4     4     5    1
     5     5     6   ar
     6     6    16    1
     7    16    17    1
     8    17    18    1
     9    18    19    1
    10    19    21    1
    11    21    22    1
    12    21    23    1
    13    23    24    1
    14    19    20    1
    15     6     7   ar
    16     7     8   ar
    17     8     9   ar
    18     9    10   ar
    19    10    11   ar
    20    11    27    1
    21    27    28   ar
    22    27    29   ar
    23    11    12   ar
    24    12    13    2
    25    12    14   ar
    26    14    15   ar
    27    14     2    1
    28    15     5   ar
    29    20    16    1
    30    15     9   ar
    31    24    21    1
    32    22    25    1
    33    22    26    1
@<TRIPOS>MOLECULE
*****
 29 33 0 0 0
SMALL
GASTEIGER

@<TRIPOS>ATOM
      1 C         143.8674  142.9658  166.5696 C.3     1  UNL1        0.0285
      2 C         142.7502  142.1083  166.0531 C.3     1  UNL1        0.1321
      3 C         142.6619  141.7930  164.5893 C.3     1  UNL1        0.2279
      4 O         141.5447  140.9356  164.0728 O.3     1  UNL1       -0.4707
      5 C         140.5158  140.3935  165.0202 C.ar    1  UNL1        0.1675
      6 C         139.3986  139.5361  164.5037 C.ar    1  UNL1        0.0837
      7 C         138.3698  138.9940  165.4511 C.ar    1  UNL1        0.0177
      8 C         138.4580  139.3093  166.9149 C.ar    1  UNL1        0.0029
      9 C         139.5752  140.1667  167.4314 C.ar    1  UNL1        0.0191
     10 C         139.6635  140.4820  168.8952 C.ar    1  UNL1        0.0074
     11 C         140.7807  141.3395  169.4116 C.ar    1  UNL1        0.0702
     12 C         141.8096  141.8816  168.4643 C.ar    1  UNL1        0.2620
     13 O         142.9268  142.7390  168.9808 O.2     1  UNL1       -0.2669
     14 N         141.7213  141.5663  167.0004 N.ar    1  UNL1       -0.2909
     15 C         140.6041  140.7088  166.4840 C.ar    1  UNL1        0.0978
     16 N         139.3103  139.2208  163.0399 N.pl3   1  UNL1       -0.3051
     17 C         139.5027  137.8704  162.4157 C.3     1  UNL1        0.0910
     18 C         139.3254  138.0155  160.9333 C.3     1  UNL1        0.0244
     19 C         139.0235  139.4555  160.6413 C.3     1  UNL1        0.0344
     20 C         139.0141  140.2004  161.9433 C.3     1  UNL1        0.0921
     21 C         138.7745  140.0468  159.2854 C.3     1  UNL1        0.0406
     22 N         139.1253  138.8723  158.4207 N.3     1  UNL1       -0.3231
     23 C         138.4038  141.0458  158.2298 C.3     1  UNL1        0.0156
     24 C         138.3373  141.4265  159.6792 C.3     1  UNL1        0.0156
     25 H         139.4065  138.0884  159.0096 H       1  UNL1        0.1188
     26 H         139.8946  139.1246  157.8003 H       1  UNL1        0.1188
     27 C         140.8690  141.6548  170.8755 C.2     1  UNL1        0.0775
     28 O         139.9348  142.6580  171.4843 O.co2   1  UNL1       -0.5444
     29 O         141.8915  140.9667  171.7306 O.co2   1  UNL1       -0.5444
@<TRIPOS>UNITY_ATOM_ATTR
28 1
charge -1
@<TRIPOS>BOND
     1     2     1    1
     2     2     3    1
     3     3     4    1
     4     4     5    1
     5     5     6   ar
     6     6    16    1
     7    16    17    1
     8    17    18    1
     9    18    19    1
    10    19    21    1
    11    21    22    1
    12    21    23    1
    13    23    24    1
    14    19    20    1
    15     6     7   ar
    16     7     8   ar
    17     8     9   ar
    18     9    10   ar
    19    10    11   ar
    20    11    27    1
    21    27    28   ar
    22    27    29   ar
    23    11    12   ar
    24    12    13    2
    25    12    14   ar
    26    14    15   ar
    27    14     2    1
    28    15     5   ar
    29    20    16    1
    30    15     9   ar
    31    24    21    1
    32    22    25    1
    33    22    26    1
@<TRIPOS>MOLECULE
*****
 29 33 0 0 0
SMALL
GASTEIGER

@<TRIPOS>ATOM
      1 C         137.6769  138.6290  167.4048 C.3     1  UNL1        0.0285
      2 C         138.7833  139.2237  166.5849 C.3     1  UNL1        0.1321
      3 C         138.9024  138.8858  165.1283 C.3     1  UNL1        0.2279
      4 O         140.0087  139.4806  164.3084 O.3     1  UNL1       -0.4707
      5 C         140.9960  140.4132  164.9450 C.ar    1  UNL1        0.1675
      6 C         142.1023  141.0080  164.1251 C.ar    1  UNL1        0.0837
      7 C         143.0896  141.9407  164.7618 C.ar    1  UNL1        0.0177
      8 C         142.9705  142.2787  166.2184 C.ar    1  UNL1        0.0029
      9 C         141.8642  141.6839  167.0383 C.ar    1  UNL1        0.0191
     10 C         141.7451  142.0218  168.4949 C.ar    1  UNL1        0.0074
     11 C         140.6388  141.4271  169.3148 C.ar    1  UNL1        0.0702
     12 C         139.6515  140.4944  168.6781 C.ar    1  UNL1        0.2620
     13 O         138.5451  139.8996  169.4980 O.2     1  UNL1       -0.2669
     14 N         139.7705  140.1564  167.2215 N.ar    1  UNL1       -0.2909
     15 C         140.8769  140.7512  166.4016 C.ar    1  UNL1        0.0978
     16 N         142.2214  140.6701  162.6686 N.pl3   1  UNL1       -0.3051
     17 C         142.1622  141.6445  161.5297 C.3     1  UNL1        0.0910
     18 C         142.3248  140.8751  160.2523 C.3     1  UNL1        0.0244
     19 C         142.4845  139.4251  160.6018 C.3     1  UNL1        0.0344
     20 C         142.4206  139.2984  162.0951 C.3     1  UNL1        0.0921
     21 C         142.6748  138.2995  159.6288 C.3     1  UNL1        0.0406
     22 N         143.1364  137.2217  160.5644 N.3     1  UNL1       -0.3231
     23 C         142.7047  137.5481  158.3309 C.3     1  UNL1        0.0156
     24 C         142.2792  138.9863  158.3553 C.3     1  UNL1        0.0156
     25 H         143.1694  137.5883  161.5156 H       1  UNL1        0.1188
     26 H         144.0668  136.9076  160.2886 H       1  UNL1        0.1188
     27 C         140.5197  141.7650  170.7714 C.2     1  UNL1        0.0775
     28 O         139.6351  142.8944  171.2094 O.co2   1  UNL1       -0.5444
     29 O         141.2853  140.9736  171.7899 O.co2   1  UNL1       -0.5444
@<TRIPOS>UNITY_ATOM_ATTR
28 1
charge -1
@<TRIPOS>BOND
     1     2     1    1
     2     2     3    1
     3     3     4    1
     4     4     5    1
     5     5     6   ar
     6     6    16    1
     7    16    17    1
     8    17    18    1
     9    18    19    1
    10    19    21    1
    11    21    22    1
    12    21    23    1
    13    23    24    1
    14    19    20    1
    15     6     7   ar
    16     7     8   ar
    17     8     9   ar
    18     9    10   ar
    19    10    11   ar
    20    11    27    1
    21    27    28   ar
    22    27    29   ar
    23    11    12   ar
    24    12    13    2
    25    12    14   ar
    26    14    15   ar
    27    14     2    1
    28    15     5   ar
    29    20    16    1
    30    15     9   ar
    31    24    21    1
    32    22    25    1
    33    22    26    1
@<TRIPOS>MOLECULE
*****
 29 33 0 0 0
SMALL
GASTEIGER

@<TRIPOS>ATOM
      1 C         138.6242  139.4082  166.7111 C.3     1  UNL1        0.0285
      2 C         139.6249  140.2762  166.0074 C.3     1  UNL1        0.1321
      3 C         139.4422  140.6059  164.5556 C.3     1  UNL1        0.2279
      4 O         140.4429  141.4739  163.8519 O.3     1  UNL1       -0.4707
      5 C         141.6263  142.0122  164.6000 C.ar    1  UNL1        0.1675
      6 C         142.6270  142.8802  163.8963 C.ar    1  UNL1        0.0837
      7 C         143.8103  143.4186  164.6445 C.ar    1  UNL1        0.0177
      8 C         143.9931  143.0890  166.0964 C.ar    1  UNL1        0.0029
      9 C         142.9924  142.2209  166.8001 C.ar    1  UNL1        0.0191
     10 C         143.1751  141.8913  168.2519 C.ar    1  UNL1        0.0074
     11 C         142.1744  141.0233  168.9557 C.ar    1  UNL1        0.0702
     12 C         140.9910  140.4849  168.2075 C.ar    1  UNL1        0.2620
     13 O         139.9903  139.6169  168.9112 O.2     1  UNL1       -0.2669
     14 N         140.8083  140.8146  166.7556 N.ar    1  UNL1       -0.2909
     15 C         141.8090  141.6826  166.0519 C.ar    1  UNL1        0.0978
     16 N         142.4443  143.2099  162.4445 N.pl3   1  UNL1       -0.3051
     17 C         143.1379  142.5416  161.2945 C.3     1  UNL1        0.0910
     18 C         142.6582  143.1844  160.0269 C.3     1  UNL1        0.0244
     19 C         141.6681  144.2500  160.3934 C.3     1  UNL1        0.0344
     20 C         141.5359  144.2657  161.8876 C.3     1  UNL1        0.0921
     21 C         140.9384  145.1430  159.4343 C.3     1  UNL1        0.0406
     22 N         139.8406  145.6419  160.3266 N.3     1  UNL1       -0.3231
     23 C         140.5898  145.8627  158.1653 C.3     1  UNL1        0.0156
     24 C         141.7827  144.9542  158.2089 C.3     1  UNL1        0.0156
     25 H         139.9428  145.2300  161.2541 H       1  UNL1        0.1188
     26 H         138.9370  145.3770  159.9346 H       1  UNL1        0.1188
     27 C         142.3571  140.6936  170.4076 C.2     1  UNL1        0.0775
     28 O         141.5097  141.3716  171.4430 O.co2   1  UNL1       -0.5444
     29 O         143.3874  139.6860  170.8240 O.co2   1  UNL1       -0.5444
@<TRIPOS>UNITY_ATOM_ATTR
28 1
charge -1
@<TRIPOS>BOND
     1     2     1    1
     2     2     3    1
     3     3     4    1
     4     4     5    1
     5     5     6   ar
     6     6    16    1
     7    16    17    1
     8    17    18    1
     9    18    19    1
    10    19    21    1
    11    21    22    1
    12    21    23    1
    13    23    24    1
    14    19    20    1
    15     6     7   ar
    16     7     8   ar
    17     8     9   ar
    18     9    10   ar
    19    10    11   ar
    20    11    27    1
    21    27    28   ar
    22    27    29   ar
    23    11    12   ar
    24    12    13    2
    25    12    14   ar
    26    14    15   ar
    27    14     2    1
    28    15     5   ar
    29    20    16    1
    30    15     9   ar
    31    24    21    1
    32    22    25    1
    33    22    26    1
@<TRIPOS>MOLECULE
*****
 29 33 0 0 0
SMALL
GASTEIGER

@<TRIPOS>ATOM
      1 C         143.7261  138.3363  166.5455 C.3     1  UNL1        0.0285
      2 C         142.9905  139.5063  165.9622 C.3     1  UNL1        0.1321
      3 C         143.1412  139.8371  164.5069 C.3     1  UNL1        0.2279
      4 O         142.4057  141.0070  163.9236 O.3     1  UNL1       -0.4707
      5 C         141.5194  141.8461  164.7956 C.ar    1  UNL1        0.1675
      6 C         140.7839  143.0160  164.2123 C.ar    1  UNL1        0.0837
      7 C         139.8976  143.8552  165.0842 C.ar    1  UNL1        0.0177
      8 C         139.7468  143.5244  166.5395 C.ar    1  UNL1        0.0029
      9 C         140.4824  142.3544  167.1228 C.ar    1  UNL1        0.0191
     10 C         140.3316  142.0236  168.5781 C.ar    1  UNL1        0.0074
     11 C         141.0672  140.8537  169.1614 C.ar    1  UNL1        0.0702
     12 C         141.9534  140.0146  168.2894 C.ar    1  UNL1        0.2620
     13 O         142.6890  138.8447  168.8728 O.2     1  UNL1       -0.2669
     14 N         142.1042  140.3454  166.8341 N.ar    1  UNL1       -0.2909
     15 C         141.3687  141.5153  166.2508 C.ar    1  UNL1        0.0978
     16 N         140.9346  143.3469  162.7570 N.pl3   1  UNL1       -0.3051
     17 C         142.0898  144.0722  162.1327 C.3     1  UNL1        0.0910
     18 C         141.8258  144.1841  160.6604 C.3     1  UNL1        0.0244
     19 C         140.5075  143.5279  160.3746 C.3     1  UNL1        0.0344
     20 C         139.9567  143.0105  161.6705 C.3     1  UNL1        0.0921
     21 C         139.8546  143.4099  159.0294 C.3     1  UNL1        0.0406
     22 N         138.4831  142.9653  159.4435 N.3     1  UNL1       -0.3231
     23 C         139.6779  143.4463  157.5403 C.3     1  UNL1        0.0156
     24 C         140.9993  143.8135  158.1480 C.3     1  UNL1        0.0156
     25 H         138.4423  142.8911  160.4600 H       1  UNL1        0.1188
     26 H         138.2804  142.0562  159.0279 H       1  UNL1        0.1188
     27 C         140.9164  140.5229  170.6167 C.2     1  UNL1        0.0775
     28 O         141.8961  141.0655  171.6146 O.co2   1  UNL1       -0.5444
     29 O         139.7859  139.6495  171.0741 O.co2   1  UNL1       -0.5444
@<TRIPOS>UNITY_ATOM_ATTR
28 1
charge -1
@<TRIPOS>BOND
     1     2     1    1
     2     2     3    1
     3     3     4    1
     4     4     5    1
     5     5     6   ar
     6     6    16    1
     7    16    17    1
     8    17    18    1
     9    18    19    1
    10    19    21    1
    11    21    22    1
    12    21    23    1
    13    23    24    1
    14    19    20    1
    15     6     7   ar
    16     7     8   ar
    17     8     9   ar
    18     9    10   ar
    19    10    11   ar
    20    11    27    1
    21    27    28   ar
    22    27    29   ar
    23    11    12   ar
    24    12    13    2
    25    12    14   ar
    26    14    15   ar
    27    14     2    1
    28    15     5   ar
    29    20    16    1
    30    15     9   ar
    31    24    21    1
    32    22    25    1
    33    22    26    1
@<TRIPOS>MOLECULE
*****
 29 33 0 0 0
SMALL
GASTEIGER

@<TRIPOS>ATOM
      1 C         143.4072  142.5240  166.9063 C.3     1  UNL1        0.0285
      2 C         142.5520  141.6346  166.0533 C.3     1  UNL1        0.1321
      3 C         142.8954  141.4254  164.6082 C.3     1  UNL1        0.2279
      4 O         142.0402  140.5361  163.7552 O.3     1  UNL1       -0.4707
      5 C         140.8416  139.8558  164.3473 C.ar    1  UNL1        0.1675
      6 C         139.9864  138.9664  163.4943 C.ar    1  UNL1        0.0837
      7 C         138.7878  138.2862  164.0863 C.ar    1  UNL1        0.0177
      8 C         138.4443  138.4954  165.5315 C.ar    1  UNL1        0.0029
      9 C         139.2995  139.3847  166.3845 C.ar    1  UNL1        0.0191
     10 C         138.9561  139.5939  167.8296 C.ar    1  UNL1        0.0074
     11 C         139.8113  140.4833  168.6826 C.ar    1  UNL1        0.0702
     12 C         141.0099  141.1635  168.0905 C.ar    1  UNL1        0.2620
     13 O         141.8651  142.0529  168.9435 O.2     1  UNL1       -0.2669
     14 N         141.3534  140.9544  166.6453 N.ar    1  UNL1       -0.2909
     15 C         140.4982  140.0650  165.7923 C.ar    1  UNL1        0.0978
     16 N         140.3297  138.7573  162.0492 N.pl3   1  UNL1       -0.3051
     17 C         141.6053  138.1696  161.5221 C.3     1  UNL1        0.0910
     18 C         141.5218  138.1482  160.0246 C.3     1  UNL1        0.0244
     19 C         140.1947  138.7225  159.6261 C.3     1  UNL1        0.0344
     20 C         139.4579  139.0990  160.8774 C.3     1  UNL1        0.0921
     21 C         139.6924  138.8909  158.2227 C.3     1  UNL1        0.0406
     22 N         138.4702  139.7211  158.4814 N.3     1  UNL1       -0.3231
     23 C         139.6146  138.7710  156.7296 C.3     1  UNL1        0.0156
     24 C         140.7402  138.1192  157.4768 C.3     1  UNL1        0.0156
     25 H         138.3819  139.8935  159.4828 H       1  UNL1        0.1188
     26 H         137.6445  139.2237  158.1480 H       1  UNL1        0.1188
     27 C         139.4679  140.6924  170.1277 C.2     1  UNL1        0.0775
     28 O         139.4469  139.5257  171.0701 O.co2   1  UNL1       -0.5444
     29 O         139.1454  142.0684  170.6304 O.co2   1  UNL1       -0.5444
@<TRIPOS>UNITY_ATOM_ATTR
28 1
charge -1
@<TRIPOS>BOND
     1     2     1    1
     2     2     3    1
     3     3     4    1
     4     4     5    1
     5     5     6   ar
     6     6    16    1
     7    16    17    1
     8    17    18    1
     9    18    19    1
    10    19    21    1
    11    21    22    1
    12    21    23    1
    13    23    24    1
    14    19    20    1
    15     6     7   ar
    16     7     8   ar
    17     8     9   ar
    18     9    10   ar
    19    10    11   ar
    20    11    27    1
    21    27    28   ar
    22    27    29   ar
    23    11    12   ar
    24    12    13    2
    25    12    14   ar
    26    14    15   ar
    27    14     2    1
    28    15     5   ar
    29    20    16    1
    30    15     9   ar
    31    24    21    1
    32    22    25    1
    33    22    26    1
@<TRIPOS>MOLECULE
*****
 29 33 0 0 0
SMALL
GASTEIGER

@<TRIPOS>ATOM
      1 C         137.8585  138.4508  161.7723 C.3     1  UNL1        0.0285
      2 C         138.9927  138.7656  162.7022 C.3     1  UNL1        0.1321
      3 C         138.7229  139.0164  164.1562 C.3     1  UNL1        0.2279
      4 O         139.8571  139.3312  165.0860 O.3     1  UNL1       -0.4707
      5 C         141.2610  139.3951  164.5619 C.ar    1  UNL1        0.1675
      6 C         142.3952  139.7099  165.4917 C.ar    1  UNL1        0.0837
      7 C         143.7991  139.7738  164.9675 C.ar    1  UNL1        0.0177
      8 C         144.0689  139.5229  163.5134 C.ar    1  UNL1        0.0029
      9 C         142.9348  139.2082  162.5836 C.ar    1  UNL1        0.0191
     10 C         143.2046  138.9573  161.1295 C.ar    1  UNL1        0.0074
     11 C         142.0704  138.6425  160.1997 C.ar    1  UNL1        0.0702
     12 C         140.6665  138.5786  160.7239 C.ar    1  UNL1        0.2620
     13 O         139.5323  138.2638  159.7940 O.2     1  UNL1       -0.2669
     14 N         140.3966  138.8295  162.1780 N.ar    1  UNL1       -0.2909
     15 C         141.5308  139.1443  163.1078 C.ar    1  UNL1        0.0978
     16 N         142.1254  139.9607  166.9457 N.pl3   1  UNL1       -0.3051
     17 C         142.6840  139.1745  168.0946 C.3     1  UNL1        0.0910
     18 C         142.1535  139.7697  169.3652 C.3     1  UNL1        0.0244
     19 C         141.2669  140.9238  169.0016 C.3     1  UNL1        0.0344
     20 C         141.2496  141.0418  167.5063 C.3     1  UNL1        0.0921
     21 C         140.5276  141.8051  169.9643 C.3     1  UNL1        0.0406
     22 N         140.3366  140.8458  171.1015 N.3     1  UNL1       -0.3231
     23 C         139.8546  143.0194  170.5320 C.3     1  UNL1        0.0156
     24 C         140.4619  143.0703  169.1613 C.3     1  UNL1        0.0156
     25 H         140.7530  139.9462  170.8612 H       1  UNL1        0.1188
     26 H         139.3396  140.7225  171.2786 H       1  UNL1        0.1188
     27 C         142.3403  138.3917  158.7456 C.2     1  UNL1        0.0775
     28 O         141.9237  139.4038  157.7200 O.co2   1  UNL1       -0.5444
     29 O         143.0267  137.1286  158.3172 O.co2   1  UNL1       -0.5444
@<TRIPOS>UNITY_ATOM_ATTR
28 1
charge -1
@<TRIPOS>BOND
     1     2     1    1
     2     2     3    1
     3     3     4    1
     4     4     5    1
     5     5     6   ar
     6     6    16    1
     7    16    17    1
     8    17    18    1
     9    18    19    1
    10    19    21    1
    11    21    22    1
    12    21    23    1
    13    23    24    1
    14    19    20    1
    15     6     7   ar
    16     7     8   ar
    17     8     9   ar
    18     9    10   ar
    19    10    11   ar
    20    11    27    1
    21    27    28   ar
    22    27    29   ar
    23    11    12   ar
    24    12    13    2
    25    12    14   ar
    26    14    15   ar
    27    14     2    1
    28    15     5   ar
    29    20    16    1
    30    15     9   ar
    31    24    21    1
    32    22    25    1
    33    22    26    1
@<TRIPOS>MOLECULE
*****
 29 33 0 0 0
SMALL
GASTEIGER

@<TRIPOS>ATOM
      1 C         138.9225  144.5862  162.0633 C.3     1  UNL1        0.0285
      2 C         139.0398  143.4791  163.0685 C.3     1  UNL1        0.1321
      3 C         139.3183  143.7989  164.5073 C.3     1  UNL1        0.2279
      4 O         139.4356  142.6918  165.5126 O.3     1  UNL1       -0.4707
      5 C         139.2743  141.2649  165.0791 C.ar    1  UNL1        0.1675
      6 C         139.3916  140.1578  166.0844 C.ar    1  UNL1        0.0837
      7 C         139.2303  138.7310  165.6509 C.ar    1  UNL1        0.0177
      8 C         138.9517  138.4111  164.2121 C.ar    1  UNL1        0.0029
      9 C         138.8344  139.5182  163.2068 C.ar    1  UNL1        0.0191
     10 C         138.5558  139.1984  161.7680 C.ar    1  UNL1        0.0074
     11 C         138.4385  140.3055  160.7627 C.ar    1  UNL1        0.0702
     12 C         138.5999  141.7324  161.1962 C.ar    1  UNL1        0.2620
     13 O         138.4826  142.8395  160.1910 O.2     1  UNL1       -0.2669
     14 N         138.8785  142.0523  162.6351 N.ar    1  UNL1       -0.2909
     15 C         138.9957  140.9452  163.6403 C.ar    1  UNL1        0.0978
     16 N         139.6702  140.4776  167.5231 N.pl3   1  UNL1       -0.3051
     17 C         138.9353  139.9237  168.7078 C.3     1  UNL1        0.0910
     18 C         139.5434  140.5112  169.9467 C.3     1  UNL1        0.0244
     19 C         140.6542  141.4282  169.5279 C.3     1  UNL1        0.0344
     20 C         140.7325  141.4074  168.0300 C.3     1  UNL1        0.0921
     21 C         141.5325  142.2259  170.4457 C.3     1  UNL1        0.0406
     22 N         140.7519  142.1074  171.7212 N.3     1  UNL1       -0.3231
     23 C         142.6817  143.0646  170.9206 C.3     1  UNL1        0.0156
     24 C         142.6179  142.6213  169.4890 C.3     1  UNL1        0.0156
     25 H         139.9150  141.5479  171.5570 H       1  UNL1        0.1188
     26 H         140.4817  143.0372  172.0421 H       1  UNL1        0.1188
     27 C         138.1600  139.9857  159.3239 C.2     1  UNL1        0.0775
     28 O         136.7876  140.2041  158.7592 O.co2   1  UNL1       -0.5444
     29 O         139.2537  139.4474  158.4499 O.co2   1  UNL1       -0.5444
@<TRIPOS>UNITY_ATOM_ATTR
28 1
charge -1
@<TRIPOS>BOND
     1     2     1    1
     2     2     3    1
     3     3     4    1
     4     4     5    1
     5     5     6   ar
     6     6    16    1
     7    16    17    1
     8    17    18    1
     9    18    19    1
    10    19    21    1
    11    21    22    1
    12    21    23    1
    13    23    24    1
    14    19    20    1
    15     6     7   ar
    16     7     8   ar
    17     8     9   ar
    18     9    10   ar
    19    10    11   ar
    20    11    27    1
    21    27    28   ar
    22    27    29   ar
    23    11    12   ar
    24    12    13    2
    25    12    14   ar
    26    14    15   ar
    27    14     2    1
    28    15     5   ar
    29    20    16    1
    30    15     9   ar
    31    24    21    1
    32    22    25    1
    33    22    26    1
@<TRIPOS>MOLECULE
*****
 29 33 0 0 0
SMALL
GASTEIGER

@<TRIPOS>ATOM
      1 C         142.0211  143.0453  160.3859 C.3     1  UNL1        0.0285
      2 C         141.6093  142.1552  161.5208 C.3     1  UNL1        0.1321
      3 C         141.9059  142.5574  162.9351 C.3     1  UNL1        0.2279
      4 O         141.4942  141.6673  164.0701 O.3     1  UNL1       -0.4707
      5 C         140.7858  140.3750  163.7908 C.ar    1  UNL1        0.1675
      6 C         140.3740  139.4848  164.9257 C.ar    1  UNL1        0.0837
      7 C         139.6656  138.1925  164.6464 C.ar    1  UNL1        0.0177
      8 C         139.3690  137.7903  163.2321 C.ar    1  UNL1        0.0029
      9 C         139.7807  138.6804  162.0971 C.ar    1  UNL1        0.0191
     10 C         139.4841  138.2782  160.6829 C.ar    1  UNL1        0.0074
     11 C         139.8959  139.1683  159.5479 C.ar    1  UNL1        0.0702
     12 C         140.6043  140.4606  159.8272 C.ar    1  UNL1        0.2620
     13 O         141.0160  141.3507  158.6922 O.2     1  UNL1       -0.2669
     14 N         140.9009  140.8628  161.2415 N.ar    1  UNL1       -0.2909
     15 C         140.4892  139.9727  162.3765 C.ar    1  UNL1        0.0978
     16 N         140.6706  139.8871  166.3400 N.pl3   1  UNL1       -0.3051
     17 C         141.8703  139.4750  167.1407 C.3     1  UNL1        0.0910
     18 C         141.7608  140.1052  168.4975 C.3     1  UNL1        0.0244
     19 C         140.4935  140.9068  168.5354 C.3     1  UNL1        0.0344
     20 C         139.8197  140.7720  167.2019 C.3     1  UNL1        0.0921
     21 C         139.9886  141.7033  169.7018 C.3     1  UNL1        0.0406
     22 N         139.2619  140.6292  170.4557 N.3     1  UNL1       -0.3231
     23 C         139.7361  142.8728  170.6064 C.3     1  UNL1        0.0156
     24 C         140.5399  143.0540  169.3531 C.3     1  UNL1        0.0156
     25 H         139.3437  139.7458  169.9524 H       1  UNL1        0.1188
     26 H         138.2773  140.8813  170.5422 H       1  UNL1        0.1188
     27 C         139.5992  138.7660  158.1336 C.2     1  UNL1        0.0775
     28 O         138.5270  139.4757  157.3612 O.co2   1  UNL1       -0.5444
     29 O         140.3748  137.6540  157.4917 O.co2   1  UNL1       -0.5444
@<TRIPOS>UNITY_ATOM_ATTR
28 1
charge -1
@<TRIPOS>BOND
     1     2     1    1
     2     2     3    1
     3     3     4    1
     4     4     5    1
     5     5     6   ar
     6     6    16    1
     7    16    17    1
     8    17    18    1
     9    18    19    1
    10    19    21    1
    11    21    22    1
    12    21    23    1
    13    23    24    1
    14    19    20    1
    15     6     7   ar
    16     7     8   ar
    17     8     9   ar
    18     9    10   ar
    19    10    11   ar
    20    11    27    1
    21    27    28   ar
    22    27    29   ar
    23    11    12   ar
    24    12    13    2
    25    12    14   ar
    26    14    15   ar
    27    14     2    1
    28    15     5   ar
    29    20    16    1
    30    15     9   ar
    31    24    21    1
    32    22    25    1
    33    22    26    1
