@<TRIPOS>MOLECULE
*****
 31 34 0 0 0
SMALL
GASTEIGER

@<TRIPOS>ATOM
      1 C         143.8580  139.1686  164.6993 C.3     1  UNL1        0.0720
      2 C         143.9824  139.9835  163.4460 C.ar    1  UNL1        0.1246
      3 N         143.9018  139.3150  162.1057 N.ar    1  UNL1       -0.2134
      4 C         144.0262  140.1298  160.8524 C.ar    1  UNL1        0.1683
      5 N         143.9457  139.4613  159.5121 N.ar    1  UNL1       -0.2217
      6 C         144.0701  140.2761  158.2589 C.ar    1  UNL1        0.1379
      7 C         144.2750  141.7595  158.3460 C.ar    1  UNL1        0.1647
      8 C         144.3555  142.4281  159.6864 C.ar    1  UNL1        0.0469
      9 C         144.2311  141.6132  160.9395 C.ar    1  UNL1        0.0950
     10 C         144.3117  142.2817  162.2800 C.ar    1  UNL1        0.2647
     11 O         144.5166  143.7651  162.3671 O.2     1  UNL1       -0.2668
     12 N         144.1873  141.4669  163.5331 N.ar    1  UNL1       -0.2839
     13 O         144.3994  142.5744  157.0928 O.3     1  UNL1       -0.4496
     14 C         145.5492  142.3419  156.1580 C.ar    1  UNL1        0.1726
     15 C         145.2926  141.8865  154.7520 C.ar    1  UNL1        0.0403
     16 C         146.4425  141.6540  153.8173 C.ar    1  UNL1        0.0100
     17 C         147.8490  141.8768  154.2886 C.ar    1  UNL1        0.0370
     18 BR        148.9988  141.6443  153.3538 Br      1  UNL1       -0.0489
     19 C         148.1056  142.3322  155.6945 C.ar    1  UNL1        0.0395
     20 C         146.9558  142.5647  156.6293 C.ar    1  UNL1        0.1749
     21 F         147.2124  143.0201  158.0352 F       1  UNL1       -0.2009
     22 C         144.2678  142.1354  164.8736 C.3     1  UNL1        0.1115
     23 C         143.0253  142.3274  165.6917 C.3     1  UNL1        0.0388
     24 C         143.0581  142.0897  167.1724 C.3     1  UNL1        0.0048
     25 C         141.8157  142.2818  167.9906 C.3     1  UNL1        0.0174
     26 C         140.5403  142.7115  167.3280 C.3     1  UNL1        0.0720
     27 N         140.5075  142.9492  165.8473 N.3     1  UNL1       -0.2739
     28 C         141.7500  142.7572  165.0292 C.3     1  UNL1        0.0739
     29 C         139.2323  143.3789  165.1848 C.3     1  UNL1        0.0576
     30 C         138.8258  144.8226  165.2057 C.3     1  UNL1        0.0173
     31 C         138.3634  142.3649  164.5014 C.3     1  UNL1        0.0173
@<TRIPOS>BOND
     1     1     2    1
     2     2     3   ar
     3     3     4   ar
     4     4     5   ar
     5     5     6   ar
     6     6     7   ar
     7     7    13    1
     8    13    14    1
     9    14    15   ar
    10    15    16   ar
    11    16    17   ar
    12    17    18    1
    13    17    19   ar
    14    19    20   ar
    15    20    21    1
    16     7     8   ar
    17     8     9   ar
    18     9    10   ar
    19    10    11    2
    20    10    12   ar
    21    12    22    1
    22    23    22    1
    23    23    24    1
    24    24    25    1
    25    25    26    1
    26    26    27    1
    27    27    29    1
    28    29    30    1
    29    29    31    1
    30    27    28    1
    31    12     2   ar
    32    28    23    1
    33     9     4   ar
    34    20    14   ar
@<TRIPOS>MOLECULE
*****
 31 34 0 0 0
SMALL
GASTEIGER

@<TRIPOS>ATOM
      1 C         143.5491  143.3112  161.5219 C.3     1  UNL1        0.0720
      2 C         142.5879  144.0285  160.6209 C.ar    1  UNL1        0.1246
      3 N         142.7745  143.9787  159.1335 N.ar    1  UNL1       -0.2134
      4 C         141.8133  144.6960  158.2325 C.ar    1  UNL1        0.1683
      5 N         141.9999  144.6462  156.7450 N.ar    1  UNL1       -0.2217
      6 C         141.0388  145.3634  155.8442 C.ar    1  UNL1        0.1379
      7 C         139.8910  146.1306  156.4308 C.ar    1  UNL1        0.1647
      8 C         139.7044  146.1804  157.9183 C.ar    1  UNL1        0.0469
      9 C         140.6656  145.4631  158.8191 C.ar    1  UNL1        0.0950
     10 C         140.4790  145.5130  160.3067 C.ar    1  UNL1        0.2647
     11 O         139.3313  146.2801  160.8933 O.2     1  UNL1       -0.2668
     12 N         141.4402  144.7957  161.2076 N.ar    1  UNL1       -0.2839
     13 O         138.9298  146.8479  155.5298 O.3     1  UNL1       -0.4496
     14 C         139.1972  148.2676  155.1262 C.ar    1  UNL1        0.1726
     15 C         139.9352  148.5591  153.8533 C.ar    1  UNL1        0.0403
     16 C         140.2026  149.9789  153.4496 C.ar    1  UNL1        0.0100
     17 C         139.7320  151.1070  154.3189 C.ar    1  UNL1        0.0370
     18 BR        139.9993  152.5267  153.9152 Br      1  UNL1       -0.0489
     19 C         138.9939  150.8155  155.5918 C.ar    1  UNL1        0.0395
     20 C         138.7265  149.3959  155.9955 C.ar    1  UNL1        0.1749
     21 F         137.9885  149.1044  157.2684 F       1  UNL1       -0.2009
     22 C         141.2536  144.8455  162.6951 C.3     1  UNL1        0.1115
     23 C         140.1308  144.0849  163.3360 C.3     1  UNL1        0.0388
     24 C         139.0567  144.8200  164.0818 C.3     1  UNL1        0.0048
     25 C         137.9338  144.0594  164.7227 C.3     1  UNL1        0.0174
     26 C         137.8851  142.5638  164.6179 C.3     1  UNL1        0.0720
     27 N         138.9592  141.8289  163.8722 N.3     1  UNL1       -0.2739
     28 C         140.0820  142.5894  163.2312 C.3     1  UNL1        0.0739
     29 C         138.9104  140.3334  163.7673 C.3     1  UNL1        0.0576
     30 C         139.7023  139.4885  164.7207 C.3     1  UNL1        0.0173
     31 C         138.0697  139.6827  162.7091 C.3     1  UNL1        0.0173
@<TRIPOS>BOND
     1     1     2    1
     2     2     3   ar
     3     3     4   ar
     4     4     5   ar
     5     5     6   ar
     6     6     7   ar
     7     7    13    1
     8    13    14    1
     9    14    15   ar
    10    15    16   ar
    11    16    17   ar
    12    17    18    1
    13    17    19   ar
    14    19    20   ar
    15    20    21    1
    16     7     8   ar
    17     8     9   ar
    18     9    10   ar
    19    10    11    2
    20    10    12   ar
    21    12    22    1
    22    23    22    1
    23    23    24    1
    24    24    25    1
    25    25    26    1
    26    26    27    1
    27    27    29    1
    28    29    30    1
    29    29    31    1
    30    27    28    1
    31    12     2   ar
    32    28    23    1
    33     9     4   ar
    34    20    14   ar
@<TRIPOS>MOLECULE
*****
 31 34 0 0 0
SMALL
GASTEIGER

@<TRIPOS>ATOM
      1 C         144.8796  139.8388  164.4395 C.3     1  UNL1        0.0720
      2 C         144.0726  139.3687  163.2657 C.ar    1  UNL1        0.1246
      3 N         144.4662  139.7713  161.8754 N.ar    1  UNL1       -0.2134
      4 C         143.6591  139.3012  160.7016 C.ar    1  UNL1        0.1683
      5 N         144.0527  139.7038  159.3113 N.ar    1  UNL1       -0.2217
      6 C         143.2457  139.2338  158.1376 C.ar    1  UNL1        0.1379
      7 C         142.0451  138.3611  158.3541 C.ar    1  UNL1        0.1647
      8 C         141.6515  137.9585  159.7444 C.ar    1  UNL1        0.0469
      9 C         142.4585  138.4285  160.9181 C.ar    1  UNL1        0.0950
     10 C         142.0649  138.0259  162.3085 C.ar    1  UNL1        0.2647
     11 O         140.8643  137.1532  162.5251 O.2     1  UNL1       -0.2668
     12 N         142.8720  138.4960  163.4823 N.ar    1  UNL1       -0.2839
     13 O         141.2380  137.8910  157.1803 O.3     1  UNL1       -0.4496
     14 C         141.6170  136.6267  156.4677 C.ar    1  UNL1        0.1726
     15 C         142.8749  135.9016  156.8443 C.ar    1  UNL1        0.0403
     16 C         143.2538  134.6373  156.1316 C.ar    1  UNL1        0.0100
     17 C         142.3748  134.0980  155.0423 C.ar    1  UNL1        0.0370
     18 BR        142.7538  132.8338  154.3296 Br      1  UNL1       -0.0489
     19 C         141.1169  134.8231  154.6657 C.ar    1  UNL1        0.0395
     20 C         140.7379  136.0874  155.3783 C.ar    1  UNL1        0.1749
     21 F         139.4800  136.8125  155.0017 F       1  UNL1       -0.2009
     22 C         142.4784  138.0934  164.8726 C.3     1  UNL1        0.1115
     23 C         141.5091  138.9332  165.6506 C.3     1  UNL1        0.0388
     24 C         140.0376  138.6548  165.5638 C.3     1  UNL1        0.0048
     25 C         139.0683  139.4946  166.3417 C.3     1  UNL1        0.0174
     26 C         139.5704  140.6128  167.2064 C.3     1  UNL1        0.0720
     27 N         141.0418  140.8911  167.2931 N.3     1  UNL1       -0.2739
     28 C         142.0111  140.0514  166.5152 C.3     1  UNL1        0.0739
     29 C         141.5438  142.0093  168.1577 C.3     1  UNL1        0.0576
     30 C         143.0107  142.1348  168.4449 C.3     1  UNL1        0.0173
     31 C         140.5789  143.0020  168.7353 C.3     1  UNL1        0.0173
@<TRIPOS>BOND
     1     1     2    1
     2     2     3   ar
     3     3     4   ar
     4     4     5   ar
     5     5     6   ar
     6     6     7   ar
     7     7    13    1
     8    13    14    1
     9    14    15   ar
    10    15    16   ar
    11    16    17   ar
    12    17    18    1
    13    17    19   ar
    14    19    20   ar
    15    20    21    1
    16     7     8   ar
    17     8     9   ar
    18     9    10   ar
    19    10    11    2
    20    10    12   ar
    21    12    22    1
    22    23    22    1
    23    23    24    1
    24    24    25    1
    25    25    26    1
    26    26    27    1
    27    27    29    1
    28    29    30    1
    29    29    31    1
    30    27    28    1
    31    12     2   ar
    32    28    23    1
    33     9     4   ar
    34    20    14   ar
@<TRIPOS>MOLECULE
*****
 31 34 0 0 0
SMALL
GASTEIGER

@<TRIPOS>ATOM
      1 C         144.6979  138.0710  155.2889 C.3     1  UNL1        0.0720
      2 C         143.4296  138.1247  156.0880 C.ar    1  UNL1        0.1246
      3 N         143.4040  138.8382  157.4072 N.ar    1  UNL1       -0.2134
      4 C         142.1357  138.8919  158.2064 C.ar    1  UNL1        0.1683
      5 N         142.1101  139.6054  159.5255 N.ar    1  UNL1       -0.2217
      6 C         140.8418  139.6590  160.3246 C.ar    1  UNL1        0.1379
      7 C         139.5992  138.9991  159.8046 C.ar    1  UNL1        0.1647
      8 C         139.6248  138.2856  158.4854 C.ar    1  UNL1        0.0469
      9 C         140.8931  138.2320  157.6863 C.ar    1  UNL1        0.0950
     10 C         140.9188  137.5184  156.3671 C.ar    1  UNL1        0.2647
     11 O         139.6761  136.8585  155.8471 O.2     1  UNL1       -0.2668
     12 N         142.1870  137.4648  155.5680 N.ar    1  UNL1       -0.2839
     13 O         138.3309  139.0528  160.6037 O.3     1  UNL1       -0.4496
     14 C         138.3893  139.0801  162.1023 C.ar    1  UNL1        0.1726
     15 C         138.8734  137.8769  162.8561 C.ar    1  UNL1        0.0403
     16 C         138.9318  137.9043  164.3547 C.ar    1  UNL1        0.0100
     17 C         138.5061  139.1347  165.0996 C.ar    1  UNL1        0.0370
     18 BR        138.5645  139.1619  166.5982 Br      1  UNL1       -0.0489
     19 C         138.0220  140.3378  164.3458 C.ar    1  UNL1        0.0395
     20 C         137.9636  140.3105  162.8473 C.ar    1  UNL1        0.1749
     21 F         137.4794  141.5136  162.0935 F       1  UNL1       -0.2009
     22 C         142.2127  136.7512  154.2488 C.3     1  UNL1        0.1115
     23 C         142.4362  135.2687  154.2023 C.3     1  UNL1        0.0388
     24 C         141.8518  134.4568  153.0844 C.3     1  UNL1        0.0048
     25 C         142.0753  132.9743  153.0379 C.3     1  UNL1        0.0174
     26 C         142.8832  132.3036  154.1092 C.3     1  UNL1        0.0720
     27 N         143.4674  133.1155  155.2270 N.3     1  UNL1       -0.2739
     28 C         143.2439  134.5980  155.2735 C.3     1  UNL1        0.0739
     29 C         144.2752  132.4448  156.2982 C.3     1  UNL1        0.0576
     30 C         144.9515  131.1354  156.0187 C.3     1  UNL1        0.0173
     31 C         144.4067  133.0834  157.6492 C.3     1  UNL1        0.0173
@<TRIPOS>BOND
     1     1     2    1
     2     2     3   ar
     3     3     4   ar
     4     4     5   ar
     5     5     6   ar
     6     6     7   ar
     7     7    13    1
     8    13    14    1
     9    14    15   ar
    10    15    16   ar
    11    16    17   ar
    12    17    18    1
    13    17    19   ar
    14    19    20   ar
    15    20    21    1
    16     7     8   ar
    17     8     9   ar
    18     9    10   ar
    19    10    11    2
    20    10    12   ar
    21    12    22    1
    22    23    22    1
    23    23    24    1
    24    24    25    1
    25    25    26    1
    26    26    27    1
    27    27    29    1
    28    29    30    1
    29    29    31    1
    30    27    28    1
    31    12     2   ar
    32    28    23    1
    33     9     4   ar
    34    20    14   ar
@<TRIPOS>MOLECULE
*****
 31 34 0 0 0
SMALL
GASTEIGER

@<TRIPOS>ATOM
      1 C         139.4724  137.5899  154.0945 C.3     1  UNL1        0.0720
      2 C         139.9897  137.8908  155.4700 C.ar    1  UNL1        0.1246
      3 N         139.0647  138.4390  156.5158 N.ar    1  UNL1       -0.2134
      4 C         139.5820  138.7399  157.8913 C.ar    1  UNL1        0.1683
      5 N         138.6569  139.2881  158.9372 N.ar    1  UNL1       -0.2217
      6 C         139.1742  139.5890  160.3126 C.ar    1  UNL1        0.1379
      7 C         140.6165  139.3417  160.6422 C.ar    1  UNL1        0.1647
      8 C         141.5415  138.7935  159.5964 C.ar    1  UNL1        0.0469
      9 C         141.0242  138.4926  158.2209 C.ar    1  UNL1        0.0950
     10 C         141.9493  137.9444  157.1750 C.ar    1  UNL1        0.2647
     11 O         143.3916  137.6971  157.5046 O.2     1  UNL1       -0.2668
     12 N         141.4320  137.6435  155.7996 N.ar    1  UNL1       -0.2839
     13 O         141.1338  139.6426  162.0177 O.3     1  UNL1       -0.4496
     14 C         140.2877  139.3426  163.2194 C.ar    1  UNL1        0.1726
     15 C         139.4949  140.4368  163.8706 C.ar    1  UNL1        0.0403
     16 C         138.6488  140.1368  165.0723 C.ar    1  UNL1        0.0100
     17 C         138.5956  138.7425  165.6229 C.ar    1  UNL1        0.0370
     18 BR        137.7495  138.4425  166.8246 Br      1  UNL1       -0.0489
     19 C         139.3884  137.6482  164.9717 C.ar    1  UNL1        0.0395
     20 C         140.2345  137.9483  163.7700 C.ar    1  UNL1        0.1749
     21 F         141.0273  136.8540  163.1188 F       1  UNL1       -0.2009
     22 C         142.3570  137.0953  154.7537 C.3     1  UNL1        0.1115
     23 C         142.5164  135.6121  154.5964 C.3     1  UNL1        0.0388
     24 C         141.8553  134.9040  153.4511 C.3     1  UNL1        0.0048
     25 C         142.0147  133.4208  153.2938 C.3     1  UNL1        0.0174
     26 C         142.8351  132.6457  154.2819 C.3     1  UNL1        0.0720
     27 N         143.4961  133.3538  155.4272 N.3     1  UNL1       -0.2739
     28 C         143.3367  134.8370  155.5844 C.3     1  UNL1        0.0739
     29 C         144.3164  132.5787  156.4152 C.3     1  UNL1        0.0576
     30 C         144.9182  131.2623  156.0215 C.3     1  UNL1        0.0173
     31 C         144.5350  133.1200  157.7970 C.3     1  UNL1        0.0173
@<TRIPOS>BOND
     1     1     2    1
     2     2     3   ar
     3     3     4   ar
     4     4     5   ar
     5     5     6   ar
     6     6     7   ar
     7     7    13    1
     8    13    14    1
     9    14    15   ar
    10    15    16   ar
    11    16    17   ar
    12    17    18    1
    13    17    19   ar
    14    19    20   ar
    15    20    21    1
    16     7     8   ar
    17     8     9   ar
    18     9    10   ar
    19    10    11    2
    20    10    12   ar
    21    12    22    1
    22    23    22    1
    23    23    24    1
    24    24    25    1
    25    25    26    1
    26    26    27    1
    27    27    29    1
    28    29    30    1
    29    29    31    1
    30    27    28    1
    31    12     2   ar
    32    28    23    1
    33     9     4   ar
    34    20    14   ar
@<TRIPOS>MOLECULE
*****
 31 34 0 0 0
SMALL
GASTEIGER

@<TRIPOS>ATOM
      1 C         138.1615  143.6295  164.2735 C.3     1  UNL1        0.0720
      2 C         138.1875  142.7059  163.0919 C.ar    1  UNL1        0.1246
      3 N         138.2849  143.2662  161.7039 N.ar    1  UNL1       -0.2134
      4 C         138.3109  142.3426  160.5222 C.ar    1  UNL1        0.1683
      5 N         138.4083  142.9030  159.1343 N.ar    1  UNL1       -0.2217
      6 C         138.4343  141.9793  157.9527 C.ar    1  UNL1        0.1379
      7 C         138.3629  140.4953  158.1591 C.ar    1  UNL1        0.1647
      8 C         138.2654  139.9349  159.5471 C.ar    1  UNL1        0.0469
      9 C         138.2395  140.8586  160.7286 C.ar    1  UNL1        0.0950
     10 C         138.1420  140.2982  162.1167 C.ar    1  UNL1        0.2647
     11 O         138.0706  138.8142  162.3230 O.2     1  UNL1       -0.2668
     12 N         138.1161  141.2219  163.2982 N.ar    1  UNL1       -0.2839
     13 O         138.3889  139.5716  156.9774 O.3     1  UNL1       -0.4496
     14 C         139.5486  138.6415  156.7779 C.ar    1  UNL1        0.1726
     15 C         140.8510  138.9067  157.4732 C.ar    1  UNL1        0.0403
     16 C         142.0107  137.9765  157.2736 C.ar    1  UNL1        0.0100
     17 C         141.8680  136.7811  156.3789 C.ar    1  UNL1        0.0370
     18 BR        143.0277  135.8510  156.1793 Br      1  UNL1       -0.0489
     19 C         140.5656  136.5159  155.6836 C.ar    1  UNL1        0.0395
     20 C         139.4059  137.4460  155.8831 C.ar    1  UNL1        0.1749
     21 F         138.1035  137.1808  155.1879 F       1  UNL1       -0.2009
     22 C         138.0186  140.6615  164.6863 C.3     1  UNL1        0.1115
     23 C         139.2654  140.3070  165.4412 C.3     1  UNL1        0.0388
     24 C         140.5108  139.9273  164.6962 C.3     1  UNL1        0.0048
     25 C         141.7576  139.5728  165.4511 C.3     1  UNL1        0.0174
     26 C         141.7590  139.5980  166.9509 C.3     1  UNL1        0.0720
     27 N         140.5136  139.9777  167.6958 N.3     1  UNL1       -0.2739
     28 C         139.2669  140.3322  166.9409 C.3     1  UNL1        0.0739
     29 C         140.5151  140.0029  169.1956 C.3     1  UNL1        0.0576
     30 C         141.7509  139.6131  169.9511 C.3     1  UNL1        0.0173
     31 C         139.2806  140.4180  169.9399 C.3     1  UNL1        0.0173
@<TRIPOS>BOND
     1     1     2    1
     2     2     3   ar
     3     3     4   ar
     4     4     5   ar
     5     5     6   ar
     6     6     7   ar
     7     7    13    1
     8    13    14    1
     9    14    15   ar
    10    15    16   ar
    11    16    17   ar
    12    17    18    1
    13    17    19   ar
    14    19    20   ar
    15    20    21    1
    16     7     8   ar
    17     8     9   ar
    18     9    10   ar
    19    10    11    2
    20    10    12   ar
    21    12    22    1
    22    23    22    1
    23    23    24    1
    24    24    25    1
    25    25    26    1
    26    26    27    1
    27    27    29    1
    28    29    30    1
    29    29    31    1
    30    27    28    1
    31    12     2   ar
    32    28    23    1
    33     9     4   ar
    34    20    14   ar
@<TRIPOS>MOLECULE
*****
 31 34 0 0 0
SMALL
GASTEIGER

@<TRIPOS>ATOM
      1 C         138.4690  139.8376  159.2850 C.3     1  UNL1        0.0720
      2 C         138.4446  139.9353  160.7817 C.ar    1  UNL1        0.1246
      3 N         138.6186  138.7014  161.6167 N.ar    1  UNL1       -0.2134
      4 C         138.5942  138.7991  163.1134 C.ar    1  UNL1        0.1683
      5 N         138.7683  137.5652  163.9484 N.ar    1  UNL1       -0.2217
      6 C         138.7439  137.6629  165.4450 C.ar    1  UNL1        0.1379
      7 C         138.5454  138.9944  166.1066 C.ar    1  UNL1        0.1647
      8 C         138.3714  140.2283  165.2716 C.ar    1  UNL1        0.0469
      9 C         138.3958  140.1306  163.7750 C.ar    1  UNL1        0.0950
     10 C         138.2217  141.3645  162.9399 C.ar    1  UNL1        0.2647
     11 O         138.0233  142.6960  163.6014 O.2     1  UNL1       -0.2668
     12 N         138.2461  141.2668  161.4433 N.ar    1  UNL1       -0.2839
     13 O         138.5210  139.0921  167.6033 O.3     1  UNL1       -0.4496
     14 C         139.5084  139.9697  168.3138 C.ar    1  UNL1        0.1726
     15 C         140.8360  140.2686  167.6830 C.ar    1  UNL1        0.0403
     16 C         141.8234  141.1463  168.3936 C.ar    1  UNL1        0.0100
     17 C         141.4831  141.7250  169.7349 C.ar    1  UNL1        0.0370
     18 BR        142.4704  142.6026  170.4454 Br      1  UNL1       -0.0489
     19 C         140.1554  141.4261  170.3657 C.ar    1  UNL1        0.0395
     20 C         139.1680  140.5485  169.6552 C.ar    1  UNL1        0.1749
     21 F         137.8403  140.2496  170.2860 F       1  UNL1       -0.2009
     22 C         138.0721  142.5007  160.6082 C.3     1  UNL1        0.1115
     23 C         139.2753  143.2462  160.1118 C.3     1  UNL1        0.0388
     24 C         140.2295  143.8659  161.0893 C.3     1  UNL1        0.0048
     25 C         141.4328  144.6115  160.5930 C.3     1  UNL1        0.0174
     26 C         141.6818  144.7373  159.1191 C.3     1  UNL1        0.0720
     27 N         140.7276  144.1176  158.1417 N.3     1  UNL1       -0.2739
     28 C         139.5243  143.3721  158.6380 C.3     1  UNL1        0.0739
     29 C         140.9766  144.2435  156.6679 C.3     1  UNL1        0.0576
     30 C         140.0672  143.5571  155.6923 C.3     1  UNL1        0.0173
     31 C         142.1351  145.0558  156.1696 C.3     1  UNL1        0.0173
@<TRIPOS>BOND
     1     1     2    1
     2     2     3   ar
     3     3     4   ar
     4     4     5   ar
     5     5     6   ar
     6     6     7   ar
     7     7    13    1
     8    13    14    1
     9    14    15   ar
    10    15    16   ar
    11    16    17   ar
    12    17    18    1
    13    17    19   ar
    14    19    20   ar
    15    20    21    1
    16     7     8   ar
    17     8     9   ar
    18     9    10   ar
    19    10    11    2
    20    10    12   ar
    21    12    22    1
    22    23    22    1
    23    23    24    1
    24    24    25    1
    25    25    26    1
    26    26    27    1
    27    27    29    1
    28    29    30    1
    29    29    31    1
    30    27    28    1
    31    12     2   ar
    32    28    23    1
    33     9     4   ar
    34    20    14   ar
@<TRIPOS>MOLECULE
*****
 31 34 0 0 0
SMALL
GASTEIGER

@<TRIPOS>ATOM
      1 C         139.7036  139.3338  156.4649 C.3     1  UNL1        0.0720
      2 C         140.0038  138.9925  157.8944 C.ar    1  UNL1        0.1246
      3 N         138.9265  139.0980  158.9328 N.ar    1  UNL1       -0.2134
      4 C         139.2267  138.7568  160.3623 C.ar    1  UNL1        0.1683
      5 N         138.1495  138.8623  161.4007 N.ar    1  UNL1       -0.2217
      6 C         138.4497  138.5211  162.8302 C.ar    1  UNL1        0.1379
      7 C         139.8272  138.0743  163.2212 C.ar    1  UNL1        0.1647
      8 C         140.9044  137.9688  162.1828 C.ar    1  UNL1        0.0469
      9 C         140.6042  138.3100  160.7534 C.ar    1  UNL1        0.0950
     10 C         141.6815  138.2045  159.7149 C.ar    1  UNL1        0.2647
     11 O         143.0590  137.7577  160.1059 O.2     1  UNL1       -0.2668
     12 N         141.3813  138.5457  158.2854 N.ar    1  UNL1       -0.2839
     13 O         140.1274  137.7330  164.6508 O.3     1  UNL1       -0.4496
     14 C         140.6033  138.7993  165.5923 C.ar    1  UNL1        0.1726
     15 C         139.6114  139.6900  166.2799 C.ar    1  UNL1        0.0403
     16 C         140.0875  140.7563  167.2215 C.ar    1  UNL1        0.0100
     17 C         141.5553  140.9317  167.4755 C.ar    1  UNL1        0.0370
     18 BR        142.0313  141.9980  168.4171 Br      1  UNL1       -0.0489
     19 C         142.5472  140.0410  166.7880 C.ar    1  UNL1        0.0395
     20 C         142.0713  138.9748  165.8464 C.ar    1  UNL1        0.1749
     21 F         143.0632  138.0840  165.1589 F       1  UNL1       -0.2009
     22 C         142.4586  138.4402  157.2469 C.3     1  UNL1        0.1115
     23 C         142.5762  137.1998  156.4117 C.3     1  UNL1        0.0388
     24 C         142.3489  137.2687  154.9306 C.3     1  UNL1        0.0048
     25 C         142.4665  136.0283  154.0953 C.3     1  UNL1        0.0174
     26 C         142.8114  134.7191  154.7412 C.3     1  UNL1        0.0720
     27 N         143.0386  134.6503  156.2223 N.3     1  UNL1       -0.2739
     28 C         142.9210  135.8907  157.0575 C.3     1  UNL1        0.0739
     29 C         143.3835  133.3411  156.8681 C.3     1  UNL1        0.0576
     30 C         144.4382  133.2850  157.9332 C.3     1  UNL1        0.0173
     31 C         142.6737  132.0879  156.4488 C.3     1  UNL1        0.0173
@<TRIPOS>BOND
     1     1     2    1
     2     2     3   ar
     3     3     4   ar
     4     4     5   ar
     5     5     6   ar
     6     6     7   ar
     7     7    13    1
     8    13    14    1
     9    14    15   ar
    10    15    16   ar
    11    16    17   ar
    12    17    18    1
    13    17    19   ar
    14    19    20   ar
    15    20    21    1
    16     7     8   ar
    17     8     9   ar
    18     9    10   ar
    19    10    11    2
    20    10    12   ar
    21    12    22    1
    22    23    22    1
    23    23    24    1
    24    24    25    1
    25    25    26    1
    26    26    27    1
    27    27    29    1
    28    29    30    1
    29    29    31    1
    30    27    28    1
    31    12     2   ar
    32    28    23    1
    33     9     4   ar
    34    20    14   ar
@<TRIPOS>MOLECULE
*****
 31 34 0 0 0
SMALL
GASTEIGER

@<TRIPOS>ATOM
      1 C         140.2673  137.2475  164.6943 C.3     1  UNL1        0.0720
      2 C         139.6742  138.0802  163.5966 C.ar    1  UNL1        0.1246
      3 N         140.0462  137.8133  162.1682 N.ar    1  UNL1       -0.2134
      4 C         139.4531  138.6460  161.0705 C.ar    1  UNL1        0.1683
      5 N         139.8251  138.3791  159.6421 N.ar    1  UNL1       -0.2217
      6 C         139.2320  139.2119  158.5445 C.ar    1  UNL1        0.1379
      7 C         138.2669  140.3115  158.8753 C.ar    1  UNL1        0.1647
      8 C         137.8949  140.5783  160.3037 C.ar    1  UNL1        0.0469
      9 C         138.4880  139.7456  161.4013 C.ar    1  UNL1        0.0950
     10 C         138.1159  140.0125  162.8298 C.ar    1  UNL1        0.2647
     11 O         137.1508  141.1121  163.1605 O.2     1  UNL1       -0.2668
     12 N         138.7090  139.1798  163.9274 N.ar    1  UNL1       -0.2839
     13 O         137.6738  141.1442  157.7776 O.3     1  UNL1       -0.4496
     14 C         138.3311  142.4304  157.3733 C.ar    1  UNL1        0.1726
     15 C         139.3395  143.0741  158.2781 C.ar    1  UNL1        0.0403
     16 C         139.9969  144.3604  157.8738 C.ar    1  UNL1        0.0100
     17 C         139.6457  145.0029  156.5646 C.ar    1  UNL1        0.0370
     18 BR        140.3031  146.2892  156.1603 Br      1  UNL1       -0.0489
     19 C         138.6373  144.3592  155.6598 C.ar    1  UNL1        0.0395
     20 C         137.9800  143.0730  156.0641 C.ar    1  UNL1        0.1749
     21 F         136.9716  142.4293  155.1593 F       1  UNL1       -0.2009
     22 C         138.3370  139.4467  165.3558 C.3     1  UNL1        0.1115
     23 C         139.1989  140.3365  166.2016 C.3     1  UNL1        0.0388
     24 C         139.5007  141.7355  165.7523 C.3     1  UNL1        0.0048
     25 C         140.3626  142.6253  166.5981 C.3     1  UNL1        0.0174
     26 C         140.9227  142.1161  167.8932 C.3     1  UNL1        0.0720
     27 N         140.6208  140.7172  168.3424 N.3     1  UNL1       -0.2739
     28 C         139.7589  139.8274  167.4966 C.3     1  UNL1        0.0739
     29 C         141.1809  140.2081  169.6375 C.3     1  UNL1        0.0576
     30 C         142.4386  139.3908  169.6409 C.3     1  UNL1        0.0173
     31 C         140.4831  140.5164  170.9291 C.3     1  UNL1        0.0173
@<TRIPOS>BOND
     1     1     2    1
     2     2     3   ar
     3     3     4   ar
     4     4     5   ar
     5     5     6   ar
     6     6     7   ar
     7     7    13    1
     8    13    14    1
     9    14    15   ar
    10    15    16   ar
    11    16    17   ar
    12    17    18    1
    13    17    19   ar
    14    19    20   ar
    15    20    21    1
    16     7     8   ar
    17     8     9   ar
    18     9    10   ar
    19    10    11    2
    20    10    12   ar
    21    12    22    1
    22    23    22    1
    23    23    24    1
    24    24    25    1
    25    25    26    1
    26    26    27    1
    27    27    29    1
    28    29    30    1
    29    29    31    1
    30    27    28    1
    31    12     2   ar
    32    28    23    1
    33     9     4   ar
    34    20    14   ar
