@<TRIPOS>MOLECULE
*****
 42 45 0 0 0
SMALL
GASTEIGER

@<TRIPOS>ATOM
      1 N         144.9129  138.1571  163.1929 N.pl3   1  UNL1       -0.2532
      2 C         144.0945  138.5641  162.0035 C.2     1  UNL1        0.3612
      3 N         143.7996  139.9657  162.4488 N.am    1  UNL1       -0.0062
      4 C         143.3180  141.3813  162.5681 C.2     1  UNL1        0.3358
      5 O         143.9418  141.6806  163.8991 O.2     1  UNL1       -0.2516
      6 C         142.6802  142.7219  162.3538 C.3     1  UNL1        0.1697
      7 C         143.2672  143.1078  163.6790 C.3     1  UNL1        0.0326
      8 C         142.8759  144.5276  163.9636 C.3     1  UNL1        0.0237
      9 C         142.0470  145.0193  162.8142 C.3     1  UNL1        0.0913
     10 N         141.9260  143.9032  161.8192 N.pl3   1  UNL1       -0.3002
     11 C         141.1029  144.8511  160.9981 C.ar    1  UNL1        0.0484
     12 C         140.4886  146.2102  160.8390 C.ar    1  UNL1        0.0176
     13 C         139.6840  146.5308  159.6143 C.ar    1  UNL1        0.0382
     14 C         139.4938  145.4924  158.5488 C.ar    1  UNL1        0.1391
     15 C         140.1082  144.1333  158.7079 C.ar    1  UNL1        0.0382
     16 C         140.9127  143.8126  159.9326 C.ar    1  UNL1        0.0176
     17 O         138.1527  145.4070  156.0757 O.3     1  UNL1       -0.4707
     18 C         137.7339  144.6931  154.8247 C.3     1  UNL1        0.2315
     19 C         137.5095  143.6962  153.7266 C.2     1  UNL1        0.0161
     20 C         137.4938  142.4788  152.8505 C.2     1  UNL1       -0.0256
     21 C         137.6877  141.1173  152.2513 C.3     1  UNL1        0.0429
     22 C         138.0790  139.6975  151.9668 C.3     1  UNL1        0.0736
     23 N         138.6432  138.3085  152.0147 N.3     1  UNL1       -0.2895
     24 C         139.3447  137.0375  152.3921 C.3     1  UNL1        0.1552
     25 C         140.1396  135.9645  153.0753 C.2     1  UNL1        0.2423
     26 O         139.9666  134.9059  152.0267 O.2     1  UNL1       -0.2733
     27 N         140.9778  135.1568  154.0213 N.am    1  UNL1       -0.2815
     28 C         141.8068  134.6652  155.1708 C.ar    1  UNL1        0.0717
     29 C         142.5743  134.5205  156.4514 C.ar    1  UNL1        0.0717
     30 CL        143.0116  133.1000  156.2491 Cl      1  UNL1       -0.0809
     31 C         143.2322  134.7320  157.7827 C.ar    1  UNL1        0.0116
     32 C         143.7392  135.2862  159.0812 C.ar    1  UNL1        0.0165
     33 C         142.9717  135.4308  157.8006 C.ar    1  UNL1        0.0116
     34 C         142.3137  135.2194  156.4692 C.ar    1  UNL1        0.0717
     35 CL        141.7115  136.5869  156.3378 Cl      1  UNL1       -0.0809
     36 C         144.0633  136.1485  160.2651 C.3     1  UNL1        0.1905
     37 N         144.1843  137.2644  161.2600 N.pl3   1  UNL1       -0.2228
     38 H         145.0713  138.7974  163.9238 H       1  UNL1        0.2410
     39 H         145.2916  137.2498  163.2426 H       1  UNL1        0.2410
     40 H         139.1176  138.3905  151.1155 H       1  UNL1        0.1237
     41 H         141.0022  134.3291  153.4888 H       1  UNL1        0.1549
     42 H         144.7362  136.7835  161.9183 H       1  UNL1        0.2454
@<TRIPOS>BOND
     1     1     2    1
     2     2     3    2
     3     3     4    1
     4     4     5    2
     5     4     6    1
     6     6     7    1
     7     7     8    1
     8     8     9    1
     9     9    10    1
    10    10    11    1
    11    11    12   ar
    12    12    13   ar
    13    13    14   ar
    14    14    15   ar
    15    15    16   ar
    16    14    17    1
    17    17    18    1
    18    18    19    1
    19    19    20    2
    20    20    21    1
    21    21    22    1
    22    22    23    1
    23    23    24    1
    24    24    25    1
    25    25    26    2
    26    25    27   am
    27    27    28    1
    28    28    29   ar
    29    29    30    1
    30    29    31   ar
    31    31    32   ar
    32    32    33   ar
    33    33    34   ar
    34    34    35    1
    35    32    36    1
    36    36    37    1
    37    37     2    1
    38    10     6    1
    39    16    11   ar
    40    34    28   ar
    41     1    38    1
    42     1    39    1
    43    23    40    1
    44    27    41    1
    45    37    42    1
@<TRIPOS>MOLECULE
*****
 42 45 0 0 0
SMALL
GASTEIGER

@<TRIPOS>ATOM
      1 N         145.8917  142.9304  159.3638 N.pl3   1  UNL1       -0.2532
      2 C         144.4698  142.5247  159.1121 C.2     1  UNL1        0.3612
      3 N         144.3115  141.6393  160.3124 N.am    1  UNL1       -0.0062
      4 C         143.8067  140.7078  161.3743 C.2     1  UNL1        0.3358
      5 O         145.0626  140.6581  162.1932 O.2     1  UNL1       -0.2516
      6 C         142.9872  139.7888  162.2310 C.3     1  UNL1        0.1697
      7 C         144.1986  139.6806  163.1089 C.3     1  UNL1        0.0326
      8 C         143.8645  138.7650  164.2491 C.3     1  UNL1        0.0237
      9 C         142.4466  138.3072  164.0758 C.3     1  UNL1        0.0913
     10 N         141.9043  138.9400  162.8285 N.pl3   1  UNL1       -0.3002
     11 C         140.6262  138.2148  163.1295 C.ar    1  UNL1        0.0484
     12 C         139.8561  137.2896  164.0244 C.ar    1  UNL1        0.0176
     13 C         138.4357  136.9376  163.6952 C.ar    1  UNL1        0.0382
     14 C         137.7854  137.5107  162.4709 C.ar    1  UNL1        0.1391
     15 C         138.5555  138.4358  161.5760 C.ar    1  UNL1        0.0382
     16 C         139.9760  138.7879  161.9052 C.ar    1  UNL1        0.0176
     17 O         135.2428  137.2889  161.2845 O.3     1  UNL1       -0.4707
     18 C         134.2548  137.6245  160.2069 C.3     1  UNL1        0.2315
     19 C         133.5520  138.1661  158.9974 C.2     1  UNL1        0.0161
     20 C         133.1789  138.8800  157.7321 C.2     1  UNL1       -0.0256
     21 C         133.1588  139.7212  156.4903 C.3     1  UNL1        0.0429
     22 C         133.4929  140.6369  155.3501 C.3     1  UNL1        0.0736
     23 N         134.1603  141.5694  154.3833 N.3     1  UNL1       -0.2895
     24 C         135.1190  142.4604  153.6504 C.3     1  UNL1        0.1552
     25 C         136.3089  143.2536  153.1976 C.2     1  UNL1        0.2423
     26 O         135.6852  143.8420  151.9668 O.2     1  UNL1       -0.2733
     27 N         137.6550  143.8994  153.0533 N.am    1  UNL1       -0.2815
     28 C         139.0730  144.3571  153.2266 C.ar    1  UNL1        0.0717
     29 C         140.4735  144.5980  153.7066 C.ar    1  UNL1        0.0717
     30 CL        140.8938  145.5234  152.6035 Cl      1  UNL1       -0.0809
     31 C         141.7687  144.6069  154.4631 C.ar    1  UNL1        0.0116
     32 C         142.8773  144.3833  155.4487 C.ar    1  UNL1        0.0165
     33 C         141.4767  144.1424  154.9687 C.ar    1  UNL1        0.0116
     34 C         140.1814  144.1335  154.2122 C.ar    1  UNL1        0.0717
     35 CL        139.4366  143.2059  155.1257 Cl      1  UNL1       -0.0809
     36 C         143.7294  143.9412  156.6013 C.3     1  UNL1        0.1905
     37 N         144.2715  143.3084  157.8485 N.pl3   1  UNL1       -0.2228
     38 H         146.3699  142.5854  160.1522 H       1  UNL1        0.2410
     39 H         146.3469  143.5417  158.7406 H       1  UNL1        0.2410
     40 H         133.4392  142.2864  154.4626 H       1  UNL1        0.1237
     41 H         137.4672  144.3918  152.2218 H       1  UNL1        0.1549
     42 H         145.1722  143.7036  157.8059 H       1  UNL1        0.2454
@<TRIPOS>BOND
     1     1     2    1
     2     2     3    2
     3     3     4    1
     4     4     5    2
     5     4     6    1
     6     6     7    1
     7     7     8    1
     8     8     9    1
     9     9    10    1
    10    10    11    1
    11    11    12   ar
    12    12    13   ar
    13    13    14   ar
    14    14    15   ar
    15    15    16   ar
    16    14    17    1
    17    17    18    1
    18    18    19    1
    19    19    20    2
    20    20    21    1
    21    21    22    1
    22    22    23    1
    23    23    24    1
    24    24    25    1
    25    25    26    2
    26    25    27   am
    27    27    28    1
    28    28    29   ar
    29    29    30    1
    30    29    31   ar
    31    31    32   ar
    32    32    33   ar
    33    33    34   ar
    34    34    35    1
    35    32    36    1
    36    36    37    1
    37    37     2    1
    38    10     6    1
    39    16    11   ar
    40    34    28   ar
    41     1    38    1
    42     1    39    1
    43    23    40    1
    44    27    41    1
    45    37    42    1
@<TRIPOS>MOLECULE
*****
 42 45 0 0 0
SMALL
GASTEIGER

@<TRIPOS>ATOM
      1 N         145.2335  136.5063  161.7133 N.pl3   1  UNL1       -0.2532
      2 C         144.3516  137.2764  160.7757 C.2     1  UNL1        0.3612
      3 N         144.1081  136.1687  159.7941 N.am    1  UNL1       -0.0062
      4 C         143.6588  135.3236  158.6391 C.2     1  UNL1        0.3358
      5 O         144.3671  134.0639  159.0412 O.2     1  UNL1       -0.2516
      6 C         143.0320  134.7942  157.3834 C.3     1  UNL1        0.1697
      7 C         143.7048  133.4935  157.7083 C.3     1  UNL1        0.0326
      8 C         143.3557  132.5093  156.6316 C.3     1  UNL1        0.0237
      9 C         142.4671  133.2016  155.6411 C.3     1  UNL1        0.0913
     10 N         142.2670  134.6138  156.1057 N.pl3   1  UNL1       -0.3002
     11 C         141.4120  134.7938  154.8865 C.ar    1  UNL1        0.0484
     12 C         140.8123  134.2089  153.6422 C.ar    1  UNL1        0.0176
     13 C         139.9406  135.0537  152.7612 C.ar    1  UNL1        0.0382
     14 C         139.6685  136.4834  153.1244 C.ar    1  UNL1        0.1391
     15 C         140.2682  137.0683  154.3687 C.ar    1  UNL1        0.0382
     16 C         141.1399  136.2235  155.2497 C.ar    1  UNL1        0.0176
     17 O         138.1787  138.5758  151.9737 O.3     1  UNL1       -0.4707
     18 C         137.6727  139.9879  151.9668 C.3     1  UNL1        0.2315
     19 C         137.3652  141.4227  152.2782 C.2     1  UNL1        0.0161
     20 C         137.2757  142.7899  152.8887 C.2     1  UNL1       -0.0256
     21 C         137.4098  144.0038  153.7597 C.3     1  UNL1        0.0429
     22 C         137.7589  144.9880  154.8364 C.3     1  UNL1        0.0736
     23 N         138.3012  145.6806  156.0513 N.3     1  UNL1       -0.2895
     24 C         139.0026  146.0384  157.3280 C.3     1  UNL1        0.1552
     25 C         139.8191  146.0386  158.5864 C.2     1  UNL1        0.2423
     26 O         139.5648  147.4648  158.9752 O.2     1  UNL1       -0.2733
     27 N         140.6992  145.6813  159.7473 N.am    1  UNL1       -0.2815
     28 C         141.5878  144.9888  160.7377 C.ar    1  UNL1        0.0717
     29 C         142.4290  144.0049  161.4955 C.ar    1  UNL1        0.0717
     30 CL        142.8290  144.9214  162.6136 Cl      1  UNL1       -0.0809
     31 C         143.1699  142.7913  161.9731 C.ar    1  UNL1        0.0116
     32 C         143.7641  141.4241  162.1404 C.ar    1  UNL1        0.0165
     33 C         142.9229  142.4080  161.3826 C.ar    1  UNL1        0.0116
     34 C         142.1819  143.6217  160.9050 C.ar    1  UNL1        0.0717
     35 CL        141.5962  143.0094  159.6672 Cl      1  UNL1       -0.0809
     36 C         144.1740  139.9893  161.9869 C.3     1  UNL1        0.1905
     37 N         144.3740  138.5773  161.5222 N.pl3   1  UNL1       -0.2228
     38 H         145.4468  135.5636  161.5260 H       1  UNL1        0.2410
     39 H         145.5991  136.9436  162.5161 H       1  UNL1        0.2410
     40 H         137.3825  145.9676  156.3889 H       1  UNL1        0.1237
     41 H         140.6772  146.5586  160.1935 H       1  UNL1        0.1549
     42 H         144.9566  138.2858  162.2605 H       1  UNL1        0.2454
@<TRIPOS>BOND
     1     1     2    1
     2     2     3    2
     3     3     4    1
     4     4     5    2
     5     4     6    1
     6     6     7    1
     7     7     8    1
     8     8     9    1
     9     9    10    1
    10    10    11    1
    11    11    12   ar
    12    12    13   ar
    13    13    14   ar
    14    14    15   ar
    15    15    16   ar
    16    14    17    1
    17    17    18    1
    18    18    19    1
    19    19    20    2
    20    20    21    1
    21    21    22    1
    22    22    23    1
    23    23    24    1
    24    24    25    1
    25    25    26    2
    26    25    27   am
    27    27    28    1
    28    28    29   ar
    29    29    30    1
    30    29    31   ar
    31    31    32   ar
    32    32    33   ar
    33    33    34   ar
    34    34    35    1
    35    32    36    1
    36    36    37    1
    37    37     2    1
    38    10     6    1
    39    16    11   ar
    40    34    28   ar
    41     1    38    1
    42     1    39    1
    43    23    40    1
    44    27    41    1
    45    37    42    1
@<TRIPOS>MOLECULE
*****
 42 45 0 0 0
SMALL
GASTEIGER

@<TRIPOS>ATOM
      1 N         138.4197  148.8840  159.6978 N.pl3   1  UNL1       -0.2532
      2 C         138.9714  147.5027  159.5035 C.2     1  UNL1        0.3612
      3 N         139.1950  147.5960  158.0232 N.am    1  UNL1       -0.0062
      4 C         139.5428  147.3373  156.5873 C.2     1  UNL1        0.3358
      5 O         139.1344  148.6772  156.0505 O.2     1  UNL1       -0.2516
      6 C         139.9931  146.7428  155.2858 C.3     1  UNL1        0.1697
      7 C         139.6107  148.0529  154.6635 C.3     1  UNL1        0.0326
      8 C         139.8987  147.9696  153.1938 C.3     1  UNL1        0.0237
      9 C         140.4591  146.6079  152.9077 C.3     1  UNL1        0.0913
     10 N         140.5174  145.8497  154.2006 N.pl3   1  UNL1       -0.3002
     11 C         141.0829  144.7142  153.4000 C.ar    1  UNL1        0.0484
     12 C         141.5179  144.1736  152.0702 C.ar    1  UNL1        0.0176
     13 C         142.0587  142.7782  151.9684 C.ar    1  UNL1        0.0382
     14 C         142.1646  141.9235  153.1965 C.ar    1  UNL1        0.1391
     15 C         141.7296  142.4641  154.5263 C.ar    1  UNL1        0.0382
     16 C         141.1888  143.8595  154.6281 C.ar    1  UNL1        0.0176
     17 O         143.0538  139.3056  153.7234 O.3     1  UNL1       -0.4707
     18 C         143.3180  138.1643  154.6602 C.3     1  UNL1        0.2315
     19 C         143.4474  137.2634  155.8526 C.2     1  UNL1        0.0161
     20 C         143.4338  136.6598  157.2257 C.2     1  UNL1       -0.0256
     21 C         143.2781  136.3912  158.6933 C.3     1  UNL1        0.0429
     22 C         142.9901  136.4745  160.1630 C.3     1  UNL1        0.0736
     23 N         142.5879  136.9046  161.5425 N.3     1  UNL1       -0.2895
     24 C         142.0968  137.6542  162.7453 C.3     1  UNL1        0.1552
     25 C         141.5476  138.6766  163.6957 C.2     1  UNL1        0.2423
     26 O         141.6416  137.8454  164.9408 O.2     1  UNL1       -0.2733
     27 N         140.9747  139.9072  164.3340 N.am    1  UNL1       -0.2815
     28 C         140.4144  141.2689  164.6200 C.ar    1  UNL1        0.0717
     29 C         139.9016  142.6760  164.5359 C.ar    1  UNL1        0.0717
     30 CL        139.5830  142.8474  165.9916 Cl      1  UNL1       -0.0809
     31 C         139.4687  144.0401  164.0868 C.ar    1  UNL1        0.0116
     32 C         139.1428  145.2757  163.3011 C.ar    1  UNL1        0.0165
     33 C         139.6555  143.8686  163.3852 C.ar    1  UNL1        0.0116
     34 C         140.0885  142.5044  163.8343 C.ar    1  UNL1        0.0717
     35 CL        140.5155  141.9911  162.4911 Cl      1  UNL1       -0.0809
     36 C         138.9445  146.3049  162.2280 C.3     1  UNL1        0.1905
     37 N         138.8861  147.0631  160.9351 N.pl3   1  UNL1       -0.2228
     38 H         138.3271  149.4900  158.9275 H       1  UNL1        0.2410
     39 H         138.1502  149.1845  160.5957 H       1  UNL1        0.2410
     40 H         143.4969  136.6923  161.9539 H       1  UNL1        0.1237
     41 H         140.9422  139.5642  165.2562 H       1  UNL1        0.1549
     42 H         138.5100  147.8973  161.2982 H       1  UNL1        0.2454
@<TRIPOS>BOND
     1     1     2    1
     2     2     3    2
     3     3     4    1
     4     4     5    2
     5     4     6    1
     6     6     7    1
     7     7     8    1
     8     8     9    1
     9     9    10    1
    10    10    11    1
    11    11    12   ar
    12    12    13   ar
    13    13    14   ar
    14    14    15   ar
    15    15    16   ar
    16    14    17    1
    17    17    18    1
    18    18    19    1
    19    19    20    2
    20    20    21    1
    21    21    22    1
    22    22    23    1
    23    23    24    1
    24    24    25    1
    25    25    26    2
    26    25    27   am
    27    27    28    1
    28    28    29   ar
    29    29    30    1
    30    29    31   ar
    31    31    32   ar
    32    32    33   ar
    33    33    34   ar
    34    34    35    1
    35    32    36    1
    36    36    37    1
    37    37     2    1
    38    10     6    1
    39    16    11   ar
    40    34    28   ar
    41     1    38    1
    42     1    39    1
    43    23    40    1
    44    27    41    1
    45    37    42    1
@<TRIPOS>MOLECULE
*****
 42 45 0 0 0
SMALL
GASTEIGER

@<TRIPOS>ATOM
      1 N         142.8813  138.0980  164.5307 N.pl3   1  UNL1       -0.2532
      2 C         142.5633  138.7194  163.2030 C.2     1  UNL1        0.3612
      3 N         142.1184  140.0545  163.7219 N.am    1  UNL1       -0.0062
      4 C         141.6218  141.4616  163.8755 C.2     1  UNL1        0.3358
      5 O         141.7038  141.5276  165.3719 O.2     1  UNL1       -0.2516
      6 C         141.1046  142.8521  163.6541 C.3     1  UNL1        0.1697
      7 C         141.1544  143.0065  165.1452 C.3     1  UNL1        0.0326
      8 C         140.6799  144.3885  165.4842 C.3     1  UNL1        0.0237
      9 C         140.3368  145.0883  164.2025 C.3     1  UNL1        0.0913
     10 N         140.5993  144.1387  163.0714 N.pl3   1  UNL1       -0.3002
     11 C         140.1378  145.2405  162.1642 C.ar    1  UNL1        0.0484
     12 C         139.6218  146.6399  162.0049 C.ar    1  UNL1        0.0176
     13 C         139.3300  147.1804  160.6364 C.ar    1  UNL1        0.0382
     14 C         139.5543  146.3215  159.4273 C.ar    1  UNL1        0.1391
     15 C         140.0703  144.9221  159.5866 C.ar    1  UNL1        0.0382
     16 C         140.3620  144.3816  160.9550 C.ar    1  UNL1        0.0176
     17 O         139.2311  146.6737  156.6536 O.3     1  UNL1       -0.4707
     18 C         139.3110  146.1752  155.2411 C.3     1  UNL1        0.2315
     19 C         139.5155  145.3640  153.9960 C.2     1  UNL1        0.0161
     20 C         139.8318  144.2910  152.9967 C.2     1  UNL1       -0.0256
     21 C         140.2401  143.0237  152.3059 C.3     1  UNL1        0.0429
     22 C         140.7146  141.6417  151.9669 C.3     1  UNL1        0.0736
     23 N         141.2255  140.2319  152.0011 N.3     1  UNL1       -0.2895
     24 C         141.7408  138.8827  152.4064 C.3     1  UNL1        0.1552
     25 C         142.2281  137.6790  153.1572 C.2     1  UNL1        0.2423
     26 O         142.4620  136.7969  151.9668 O.2     1  UNL1       -0.2733
     27 N         142.6567  136.6964  154.2064 N.am    1  UNL1       -0.2815
     28 C         142.9997  135.9968  155.4881 C.ar    1  UNL1        0.0717
     29 C         143.2356  135.6239  156.9218 C.ar    1  UNL1        0.0717
     30 CL        143.7221  134.2266  156.6750 Cl      1  UNL1       -0.0809
     31 C         143.3495  135.6013  158.4172 C.ar    1  UNL1        0.0116
     32 C         143.3343  135.9303  159.8808 C.ar    1  UNL1        0.0165
     33 C         143.0984  136.3032  158.4471 C.ar    1  UNL1        0.0116
     34 C         142.9845  136.3258  156.9515 C.ar    1  UNL1        0.0717
     35 CL        142.4694  137.7288  156.8235 Cl      1  UNL1       -0.0809
     36 C         143.1910  136.5904  161.2200 C.3     1  UNL1        0.1905
     37 N         142.9285  137.5399  162.3511 N.pl3   1  UNL1       -0.2228
     38 H         142.7537  138.6144  165.3591 H       1  UNL1        0.2410
     39 H         143.2177  137.1738  164.5736 H       1  UNL1        0.2410
     40 H         142.0004  140.4187  151.3647 H       1  UNL1        0.1237
     41 H         142.8807  135.9558  153.5977 H       1  UNL1        0.1549
     42 H         143.1973  136.9381  163.0824 H       1  UNL1        0.2454
@<TRIPOS>BOND
     1     1     2    1
     2     2     3    2
     3     3     4    1
     4     4     5    2
     5     4     6    1
     6     6     7    1
     7     7     8    1
     8     8     9    1
     9     9    10    1
    10    10    11    1
    11    11    12   ar
    12    12    13   ar
    13    13    14   ar
    14    14    15   ar
    15    15    16   ar
    16    14    17    1
    17    17    18    1
    18    18    19    1
    19    19    20    2
    20    20    21    1
    21    21    22    1
    22    22    23    1
    23    23    24    1
    24    24    25    1
    25    25    26    2
    26    25    27   am
    27    27    28    1
    28    28    29   ar
    29    29    30    1
    30    29    31   ar
    31    31    32   ar
    32    32    33   ar
    33    33    34   ar
    34    34    35    1
    35    32    36    1
    36    36    37    1
    37    37     2    1
    38    10     6    1
    39    16    11   ar
    40    34    28   ar
    41     1    38    1
    42     1    39    1
    43    23    40    1
    44    27    41    1
    45    37    42    1
