@<TRIPOS>MOLECULE
*****
 40 44 0 0 0
SMALL
GASTEIGER

@<TRIPOS>ATOM
      1 C         141.6709  144.5975  162.9973 C.3     1  UNL1        0.0162
      2 C         142.5414  144.5099  164.2157 C.3     1  UNL1        0.0028
      3 C         143.8394  143.7602  164.1578 C.3     1  UNL1        0.0158
      4 C         144.2669  143.0982  162.8814 C.3     1  UNL1        0.0543
      5 C         143.3964  143.1859  161.6630 C.3     1  UNL1        0.0158
      6 C         142.0984  143.9355  161.7209 C.3     1  UNL1        0.0028
      7 C         140.3730  145.3471  163.0552 C.3     1  UNL1        0.0737
      8 N         140.1800  146.5781  162.2202 N.3     1  UNL1       -0.3206
      9 H         139.2468  146.9564  162.3829 H       1  UNL1        0.1189
     10 H         140.2829  146.3395  161.2338 H       1  UNL1        0.1189
     11 C         139.2680  144.8657  163.9482 C.3     1  UNL1        0.1245
     12 C         140.4105  142.2788  167.4486 C.ar    1  UNL1        0.1675
     13 C         140.0297  143.1411  166.2818 C.ar    1  UNL1        0.0580
     14 C         139.2741  142.5510  165.1282 C.ar    1  UNL1        0.0833
     15 C         138.8994  141.0986  165.1413 C.ar    1  UNL1        0.0997
     16 C         139.2802  140.2364  166.3081 C.ar    1  UNL1        0.0533
     17 C         140.0358  140.8265  167.4618 C.ar    1  UNL1        0.1754
     18 F         140.4166  139.9642  168.6286 F       1  UNL1       -0.2009
     19 N         138.1438  140.5086  163.9877 N.ar    1  UNL1       -0.2373
     20 C         137.7630  141.3708  162.8209 C.ar    1  UNL1        0.1594
     21 C         138.1377  142.8232  162.8077 C.ar    1  UNL1        0.2803
     22 O         137.7569  143.6855  161.6409 O.2     1  UNL1       -0.2653
     23 N         138.8933  143.4133  163.9613 N.ar    1  UNL1       -0.2913
     24 C         140.4289  143.5903  169.6913 C.3     1  UNL1        0.2526
     25 O         141.1661  142.8689  168.6023 O.3     1  UNL1       -0.4691
     26 N         145.5648  142.3486  162.8235 N.3     1  UNL1       -0.2922
     27 H         146.2708  142.9489  163.2498 H       1  UNL1        0.1236
     28 C         145.6850  141.0053  163.4799 C.3     1  UNL1        0.1353
     29 C         144.4588  140.1748  163.7186 C.ar    1  UNL1        0.1567
     30 N         144.2185  139.5624  165.0666 N.ar    1  UNL1       -0.2245
     31 C         142.9925  138.7319  165.3053 C.ar    1  UNL1        0.1400
     32 C         142.0066  138.5138  164.1959 C.ar    1  UNL1        0.1898
     33 C         142.2469  139.1262  162.8479 C.ar    1  UNL1        0.1715
     34 N         143.4731  139.9567  162.6092 N.ar    1  UNL1       -0.2113
     35 N         141.2612  138.9081  161.7386 N.am    1  UNL1       -0.2638
     36 C         140.0351  138.0776  161.9773 C.2     1  UNL1        0.2718
     37 O         139.0493  137.8595  160.8679 O.2     1  UNL1       -0.2707
     38 C         139.7948  137.4652  163.3253 C.3     1  UNL1        0.2899
     39 O         140.7806  137.6833  164.4346 O.3     1  UNL1       -0.4612
     40 H         141.4189  139.3100  160.8538 H       1  UNL1        0.1565
@<TRIPOS>BOND
     1    24    25    1
     2    25    12    1
     3    12    13   ar
     4    13    14   ar
     5    14    15   ar
     6    15    16   ar
     7    16    17   ar
     8    17    18    1
     9    15    19   ar
    10    19    20   ar
    11    20    21   ar
    12    21    22    2
    13    21    23   ar
    14    23    11    1
    15    11     7    1
    16     7     8    1
    17     7     1    1
    18     1     2    1
    19     2     3    1
    20     3     4    1
    21     4    26    1
    22    26    28    1
    23    28    29    1
    24    29    30   ar
    25    30    31   ar
    26    31    32   ar
    27    32    33   ar
    28    33    34   ar
    29    33    35    1
    30    35    36   am
    31    36    37    2
    32    36    38    1
    33    38    39    1
    34     4     5    1
    35     5     6    1
    36    17    12   ar
    37     6     1    1
    38    23    14   ar
    39    34    29   ar
    40    39    32    1
    41     8     9    1
    42     8    10    1
    43    26    27    1
    44    35    40    1
@<TRIPOS>MOLECULE
*****
 40 44 0 0 0
SMALL
GASTEIGER

@<TRIPOS>ATOM
      1 C         143.5296  142.2338  163.6488 C.3     1  UNL1        0.0162
      2 C         142.6187  142.7713  164.7124 C.3     1  UNL1        0.0028
      3 C         141.8337  144.0252  164.4642 C.3     1  UNL1        0.0158
      4 C         141.9597  144.7416  163.1523 C.3     1  UNL1        0.0543
      5 C         142.8707  144.2040  162.0887 C.3     1  UNL1        0.0158
      6 C         143.6556  142.9501  162.3370 C.3     1  UNL1        0.0028
      7 C         144.3145  140.9799  163.8971 C.3     1  UNL1        0.0737
      8 N         145.7114  140.8519  163.3657 N.3     1  UNL1       -0.3206
      9 H         146.0920  139.9420  163.6257 H       1  UNL1        0.1189
     10 H         146.2944  141.5898  163.7606 H       1  UNL1        0.1189
     11 C         143.7026  139.8540  164.6768 C.3     1  UNL1        0.1245
     12 C         139.7276  139.6230  166.7735 C.ar    1  UNL1        0.1675
     13 C         141.0526  139.7000  166.0746 C.ar    1  UNL1        0.0580
     14 C         141.2610  138.9720  164.7798 C.ar    1  UNL1        0.0833
     15 C         140.1444  138.1669  164.1839 C.ar    1  UNL1        0.0997
     16 C         138.8194  138.0900  164.8828 C.ar    1  UNL1        0.0533
     17 C         138.6110  138.8180  166.1776 C.ar    1  UNL1        0.1754
     18 F         137.2860  138.7410  166.8765 F       1  UNL1       -0.2009
     19 N         140.3528  137.4389  162.8891 N.ar    1  UNL1       -0.2373
     20 C         141.6778  137.5159  162.1902 C.ar    1  UNL1        0.1594
     21 C         142.7944  138.3209  162.7861 C.ar    1  UNL1        0.2803
     22 O         144.1194  138.3979  162.0872 O.2     1  UNL1       -0.2653
     23 N         142.5860  139.0490  164.0809 N.ar    1  UNL1       -0.2913
     24 C         140.5522  140.2640  169.1524 C.3     1  UNL1        0.2526
     25 O         139.5192  140.3511  168.0683 O.3     1  UNL1       -0.4691
     26 N         141.1748  145.9955  162.9041 N.3     1  UNL1       -0.2922
     27 H         141.7251  146.5649  162.2611 H       1  UNL1        0.1236
     28 C         139.7903  145.9128  162.3330 C.3     1  UNL1        0.1353
     29 C         139.1370  144.5764  162.1402 C.ar    1  UNL1        0.1567
     30 N         138.3015  143.9849  163.2366 N.ar    1  UNL1       -0.2245
     31 C         137.6482  142.6485  163.0439 C.ar    1  UNL1        0.1400
     32 C         137.8304  141.9035  161.7548 C.ar    1  UNL1        0.1898
     33 C         138.6659  142.4949  160.6584 C.ar    1  UNL1        0.1715
     34 N         139.3192  143.8314  160.8511 N.ar    1  UNL1       -0.2113
     35 N         138.8482  141.7500  159.3693 N.am    1  UNL1       -0.2638
     36 C         138.1949  140.4136  159.1766 C.2     1  UNL1        0.2718
     37 O         138.3771  139.6685  157.8875 O.2     1  UNL1       -0.2707
     38 C         137.3593  139.8221  160.2730 C.3     1  UNL1        0.2899
     39 O         137.1771  140.5671  161.5621 O.3     1  UNL1       -0.4612
     40 H         139.3965  142.1382  158.6497 H       1  UNL1        0.1565
@<TRIPOS>BOND
     1    24    25    1
     2    25    12    1
     3    12    13   ar
     4    13    14   ar
     5    14    15   ar
     6    15    16   ar
     7    16    17   ar
     8    17    18    1
     9    15    19   ar
    10    19    20   ar
    11    20    21   ar
    12    21    22    2
    13    21    23   ar
    14    23    11    1
    15    11     7    1
    16     7     8    1
    17     7     1    1
    18     1     2    1
    19     2     3    1
    20     3     4    1
    21     4    26    1
    22    26    28    1
    23    28    29    1
    24    29    30   ar
    25    30    31   ar
    26    31    32   ar
    27    32    33   ar
    28    33    34   ar
    29    33    35    1
    30    35    36   am
    31    36    37    2
    32    36    38    1
    33    38    39    1
    34     4     5    1
    35     5     6    1
    36    17    12   ar
    37     6     1    1
    38    23    14   ar
    39    34    29   ar
    40    39    32    1
    41     8     9    1
    42     8    10    1
    43    26    27    1
    44    35    40    1
@<TRIPOS>MOLECULE
*****
 40 44 0 0 0
SMALL
GASTEIGER

@<TRIPOS>ATOM
      1 C         138.5618  142.8099  163.7936 C.3     1  UNL1        0.0162
      2 C         137.7898  141.7240  163.1046 C.3     1  UNL1        0.0028
      3 C         137.6694  140.3705  163.7400 C.3     1  UNL1        0.0158
      4 C         138.3210  140.1030  165.0643 C.3     1  UNL1        0.0543
      5 C         139.0930  141.1890  165.7533 C.3     1  UNL1        0.0158
      6 C         139.2134  142.5424  165.1179 C.3     1  UNL1        0.0028
      7 C         138.6822  144.1633  163.1582 C.3     1  UNL1        0.0737
      8 N         137.4797  144.8100  162.5373 N.3     1  UNL1       -0.3206
      9 H         137.7414  145.7192  162.1560 H       1  UNL1        0.1189
     10 H         136.7564  144.9339  163.2457 H       1  UNL1        0.1189
     11 C         140.0053  144.8701  163.1438 C.3     1  UNL1        0.1245
     12 C         143.7413  142.8444  164.6231 C.ar    1  UNL1        0.1675
     13 C         142.4960  143.5196  164.1300 C.ar    1  UNL1        0.0580
     14 C         142.3132  143.7778  162.6637 C.ar    1  UNL1        0.0833
     15 C         143.3757  143.3607  161.6906 C.ar    1  UNL1        0.0997
     16 C         144.6210  142.6855  162.1837 C.ar    1  UNL1        0.0533
     17 C         144.8038  142.4273  163.6500 C.ar    1  UNL1        0.1754
     18 F         146.0492  141.7521  164.1431 F       1  UNL1       -0.2009
     19 N         143.1929  143.6188  160.2243 N.ar    1  UNL1       -0.2373
     20 C         141.9476  144.2941  159.7312 C.ar    1  UNL1        0.1594
     21 C         140.8850  144.7112  160.7044 C.ar    1  UNL1        0.2803
     22 O         139.6397  145.3864  160.2112 O.2     1  UNL1       -0.2653
     23 N         141.0678  144.4530  162.1706 N.ar    1  UNL1       -0.2913
     24 C         142.8677  141.8500  166.8587 C.3     1  UNL1        0.2526
     25 O         143.9241  142.5862  166.0894 O.3     1  UNL1       -0.4691
     26 N         138.2006  138.7496  165.6997 N.3     1  UNL1       -0.2922
     27 H         137.2414  138.4375  165.5483 H       1  UNL1        0.1236
     28 C         139.0952  137.6305  165.2558 C.3     1  UNL1        0.1353
     29 C         140.3727  137.9341  164.5305 C.ar    1  UNL1        0.1567
     30 N         141.5811  138.3847  165.2965 N.ar    1  UNL1       -0.2245
     31 C         142.8585  138.6883  164.5713 C.ar    1  UNL1        0.1400
     32 C         142.9276  138.5413  163.0800 C.ar    1  UNL1        0.1898
     33 C         141.7191  138.0908  162.3141 C.ar    1  UNL1        0.1715
     34 N         140.4417  137.7871  163.0394 N.ar    1  UNL1       -0.2113
     35 N         141.7881  137.9438  160.8229 N.am    1  UNL1       -0.2638
     36 C         143.0655  138.2474  160.0977 C.2     1  UNL1        0.2718
     37 O         143.1346  138.1005  158.6065 O.2     1  UNL1       -0.2707
     38 C         144.2740  138.6980  160.8636 C.3     1  UNL1        0.2899
     39 O         144.2050  138.8450  162.3548 O.3     1  UNL1       -0.4612
     40 H         140.9950  137.6481  160.3202 H       1  UNL1        0.1565
@<TRIPOS>BOND
     1    24    25    1
     2    25    12    1
     3    12    13   ar
     4    13    14   ar
     5    14    15   ar
     6    15    16   ar
     7    16    17   ar
     8    17    18    1
     9    15    19   ar
    10    19    20   ar
    11    20    21   ar
    12    21    22    2
    13    21    23   ar
    14    23    11    1
    15    11     7    1
    16     7     8    1
    17     7     1    1
    18     1     2    1
    19     2     3    1
    20     3     4    1
    21     4    26    1
    22    26    28    1
    23    28    29    1
    24    29    30   ar
    25    30    31   ar
    26    31    32   ar
    27    32    33   ar
    28    33    34   ar
    29    33    35    1
    30    35    36   am
    31    36    37    2
    32    36    38    1
    33    38    39    1
    34     4     5    1
    35     5     6    1
    36    17    12   ar
    37     6     1    1
    38    23    14   ar
    39    34    29   ar
    40    39    32    1
    41     8     9    1
    42     8    10    1
    43    26    27    1
    44    35    40    1
@<TRIPOS>MOLECULE
*****
 40 44 0 0 0
SMALL
GASTEIGER

@<TRIPOS>ATOM
      1 C         142.4633  139.0336  162.2704 C.3     1  UNL1        0.0162
      2 C         141.0634  138.8181  161.7765 C.3     1  UNL1        0.0028
      3 C         140.0203  138.2601  162.6988 C.3     1  UNL1        0.0158
      4 C         140.3770  137.9177  164.1149 C.3     1  UNL1        0.0543
      5 C         141.7770  138.1332  164.6088 C.3     1  UNL1        0.0158
      6 C         142.8200  138.6912  163.6865 C.3     1  UNL1        0.0028
      7 C         143.5063  139.5916  161.3481 C.3     1  UNL1        0.0737
      8 N         144.4979  138.6748  160.6951 N.3     1  UNL1       -0.3206
      9 H         145.1278  139.2194  160.1060 H       1  UNL1        0.1189
     10 H         144.0030  137.9911  160.1225 H       1  UNL1        0.1189
     11 C         143.5579  141.0663  161.0787 C.3     1  UNL1        0.1245
     12 C         139.7071  143.3128  161.6911 C.ar    1  UNL1        0.1675
     13 C         140.9907  142.5640  161.4870 C.ar    1  UNL1        0.0580
     14 C         142.1464  142.7895  162.4162 C.ar    1  UNL1        0.0833
     15 C         142.0186  143.7638  163.5495 C.ar    1  UNL1        0.0997
     16 C         140.7351  144.5126  163.7536 C.ar    1  UNL1        0.0533
     17 C         139.5793  144.2871  162.8244 C.ar    1  UNL1        0.1754
     18 F         138.2957  145.0359  163.0286 F       1  UNL1       -0.2009
     19 N         143.1744  143.9893  164.4786 N.ar    1  UNL1       -0.2373
     20 C         144.4580  143.2405  164.2745 C.ar    1  UNL1        0.1594
     21 C         144.5858  142.2661  163.1412 C.ar    1  UNL1        0.2803
     22 O         145.8694  141.5174  162.9371 O.2     1  UNL1       -0.2653
     23 N         143.4301  142.0406  162.2120 N.ar    1  UNL1       -0.2913
     24 C         138.7464  142.3014  159.4993 C.3     1  UNL1        0.2526
     25 O         138.5513  143.0873  160.7620 O.3     1  UNL1       -0.4691
     26 N         139.3340  137.3597  165.0372 N.3     1  UNL1       -0.2922
     27 H         139.8256  136.7979  165.7323 H       1  UNL1        0.1236
     28 C         138.4272  138.2861  165.7919 C.3     1  UNL1        0.1353
     29 C         138.9868  139.5131  166.4488 C.ar    1  UNL1        0.1567
     30 N         139.3905  140.6925  165.6146 N.ar    1  UNL1       -0.2245
     31 C         139.9500  141.9195  166.2714 C.ar    1  UNL1        0.1400
     32 C         140.1059  141.9670  167.7626 C.ar    1  UNL1        0.1898
     33 C         139.7023  140.7875  168.5968 C.ar    1  UNL1        0.1715
     34 N         139.1427  139.5606  167.9399 N.ar    1  UNL1       -0.2113
     35 N         139.8581  140.8350  170.0879 N.am    1  UNL1       -0.2638
     36 C         140.4177  142.0620  170.7447 C.2     1  UNL1        0.2718
     37 O         140.5736  142.1095  172.2359 O.2     1  UNL1       -0.2707
     38 C         140.8213  143.2414  169.9105 C.3     1  UNL1        0.2899
     39 O         140.6655  143.1939  168.4194 O.3     1  UNL1       -0.4612
     40 H         139.5932  140.0609  170.6354 H       1  UNL1        0.1565
@<TRIPOS>BOND
     1    24    25    1
     2    25    12    1
     3    12    13   ar
     4    13    14   ar
     5    14    15   ar
     6    15    16   ar
     7    16    17   ar
     8    17    18    1
     9    15    19   ar
    10    19    20   ar
    11    20    21   ar
    12    21    22    2
    13    21    23   ar
    14    23    11    1
    15    11     7    1
    16     7     8    1
    17     7     1    1
    18     1     2    1
    19     2     3    1
    20     3     4    1
    21     4    26    1
    22    26    28    1
    23    28    29    1
    24    29    30   ar
    25    30    31   ar
    26    31    32   ar
    27    32    33   ar
    28    33    34   ar
    29    33    35    1
    30    35    36   am
    31    36    37    2
    32    36    38    1
    33    38    39    1
    34     4     5    1
    35     5     6    1
    36    17    12   ar
    37     6     1    1
    38    23    14   ar
    39    34    29   ar
    40    39    32    1
    41     8     9    1
    42     8    10    1
    43    26    27    1
    44    35    40    1
@<TRIPOS>MOLECULE
*****
 40 44 0 0 0
SMALL
GASTEIGER

@<TRIPOS>ATOM
      1 C         140.3781  143.8599  164.8762 C.3     1  UNL1        0.0162
      2 C         141.0289  142.8590  165.7843 C.3     1  UNL1        0.0028
      3 C         142.4844  142.5341  165.6220 C.3     1  UNL1        0.0158
      4 C         143.2889  143.2102  164.5517 C.3     1  UNL1        0.0543
      5 C         142.6380  144.2111  163.6435 C.3     1  UNL1        0.0158
      6 C         141.1827  144.5359  163.8058 C.3     1  UNL1        0.0028
      7 C         138.9228  144.1847  165.0384 C.3     1  UNL1        0.0737
      8 N         138.5056  145.3694  165.8584 N.3     1  UNL1       -0.3206
      9 H         137.4880  145.4399  165.8609 H       1  UNL1        0.1189
     10 H         138.9042  146.2181  165.4569 H       1  UNL1        0.1189
     11 C         137.8845  143.3247  164.3807 C.3     1  UNL1        0.1245
     12 C         138.3770  139.0976  165.8432 C.ar    1  UNL1        0.1675
     13 C         138.2129  140.5066  165.3557 C.ar    1  UNL1        0.0580
     14 C         138.4642  140.8355  163.9140 C.ar    1  UNL1        0.0833
     15 C         138.8797  139.7554  162.9597 C.ar    1  UNL1        0.0997
     16 C         139.0439  138.3464  163.4472 C.ar    1  UNL1        0.0533
     17 C         138.7926  138.0175  164.8890 C.ar    1  UNL1        0.1754
     18 F         138.9568  136.6084  165.3765 F       1  UNL1       -0.2009
     19 N         139.1311  140.0843  161.5180 N.ar    1  UNL1       -0.2373
     20 C         138.9669  141.4933  161.0305 C.ar    1  UNL1        0.1594
     21 C         138.5513  142.5735  161.9847 C.ar    1  UNL1        0.2803
     22 O         138.3872  143.9825  161.4972 O.2     1  UNL1       -0.2653
     23 N         138.3000  142.2446  163.4265 N.ar    1  UNL1       -0.2913
     24 C         136.9823  137.8741  167.6619 C.3     1  UNL1        0.2526
     25 O         138.1257  138.7688  167.2850 O.3     1  UNL1       -0.4691
     26 N         144.7443  142.8854  164.3894 N.3     1  UNL1       -0.2922
     27 H         145.2263  143.2824  165.1959 H       1  UNL1        0.1236
     28 C         145.1861  141.4560  164.2813 C.3     1  UNL1        0.1353
     29 C         144.4565  140.5122  163.3719 C.ar    1  UNL1        0.1567
     30 N         143.5635  139.4543  163.9494 N.ar    1  UNL1       -0.2245
     31 C         142.8339  138.5104  163.0401 C.ar    1  UNL1        0.1400
     32 C         142.9973  138.6244  161.5534 C.ar    1  UNL1        0.1898
     33 C         143.8903  139.6823  160.9759 C.ar    1  UNL1        0.1715
     34 N         144.6199  140.6262  161.8853 N.ar    1  UNL1       -0.2113
     35 N         144.0536  139.7963  159.4893 N.am    1  UNL1       -0.2638
     36 C         143.3240  138.8525  158.5800 C.2     1  UNL1        0.2718
     37 O         143.4874  138.9665  157.0933 O.2     1  UNL1       -0.2707
     38 C         142.4310  137.7946  159.1575 C.3     1  UNL1        0.2899
     39 O         142.2676  137.6806  160.6441 O.3     1  UNL1       -0.4612
     40 H         144.6397  140.4906  159.1103 H       1  UNL1        0.1565
@<TRIPOS>BOND
     1    24    25    1
     2    25    12    1
     3    12    13   ar
     4    13    14   ar
     5    14    15   ar
     6    15    16   ar
     7    16    17   ar
     8    17    18    1
     9    15    19   ar
    10    19    20   ar
    11    20    21   ar
    12    21    22    2
    13    21    23   ar
    14    23    11    1
    15    11     7    1
    16     7     8    1
    17     7     1    1
    18     1     2    1
    19     2     3    1
    20     3     4    1
    21     4    26    1
    22    26    28    1
    23    28    29    1
    24    29    30   ar
    25    30    31   ar
    26    31    32   ar
    27    32    33   ar
    28    33    34   ar
    29    33    35    1
    30    35    36   am
    31    36    37    2
    32    36    38    1
    33    38    39    1
    34     4     5    1
    35     5     6    1
    36    17    12   ar
    37     6     1    1
    38    23    14   ar
    39    34    29   ar
    40    39    32    1
    41     8     9    1
    42     8    10    1
    43    26    27    1
    44    35    40    1
@<TRIPOS>MOLECULE
*****
 40 44 0 0 0
SMALL
GASTEIGER

@<TRIPOS>ATOM
      1 C         138.9208  139.3323  161.4513 C.3     1  UNL1        0.0162
      2 C         139.3418  138.3677  162.5200 C.3     1  UNL1        0.0028
      3 C         140.6602  137.6600  162.4146 C.3     1  UNL1        0.0158
      4 C         141.5576  137.9170  161.2405 C.3     1  UNL1        0.0543
      5 C         141.1365  138.8816  160.1717 C.3     1  UNL1        0.0158
      6 C         139.8181  139.5892  160.2771 C.3     1  UNL1        0.0028
      7 C         137.6024  140.0399  161.5567 C.3     1  UNL1        0.0737
      8 N         136.5351  139.7939  160.5318 N.3     1  UNL1       -0.3206
      9 H         135.7122  140.3530  160.7569 H       1  UNL1        0.1189
     10 H         136.2847  138.8051  160.5322 H       1  UNL1        0.1189
     11 C         137.3513  140.9935  162.6871 C.3     1  UNL1        0.1245
     12 C         139.2029  140.2797  166.7258 C.ar    1  UNL1        0.1675
     13 C         138.5857  140.5176  165.3796 C.ar    1  UNL1        0.0580
     14 C         139.0713  141.6477  164.5210 C.ar    1  UNL1        0.0833
     15 C         140.1742  142.5398  165.0087 C.ar    1  UNL1        0.0997
     16 C         140.7913  142.3018  166.3550 C.ar    1  UNL1        0.0533
     17 C         140.3057  141.1718  167.2135 C.ar    1  UNL1        0.1754
     18 F         140.9230  140.9338  168.5598 F       1  UNL1       -0.2009
     19 N         140.6598  143.6698  164.1502 N.ar    1  UNL1       -0.2373
     20 C         140.0426  143.9078  162.8039 C.ar    1  UNL1        0.1594
     21 C         138.9397  143.0156  162.3162 C.ar    1  UNL1        0.2803
     22 O         138.3225  143.2536  160.9699 O.2     1  UNL1       -0.2653
     23 N         138.4541  141.8856  163.1747 N.ar    1  UNL1       -0.2913
     24 C         137.5126  138.3574  167.1706 C.3     1  UNL1        0.2526
     25 O         138.7172  139.1496  167.5844 O.3     1  UNL1       -0.4691
     26 N         142.8759  137.2094  161.1350 N.3     1  UNL1       -0.2922
     27 H         142.9586  136.8826  160.1723 H       1  UNL1        0.1236
     28 C         144.1466  137.9394  161.4551 C.3     1  UNL1        0.1353
     29 C         144.1284  139.0906  162.4167 C.ar    1  UNL1        0.1567
     30 N         144.0808  138.8333  163.8937 N.ar    1  UNL1       -0.2245
     31 C         144.0627  139.9844  164.8553 C.ar    1  UNL1        0.1400
     32 C         144.0921  141.3928  164.3399 C.ar    1  UNL1        0.1898
     33 C         144.1396  141.6500  162.8629 C.ar    1  UNL1        0.1715
     34 N         144.1578  140.4989  161.9013 N.ar    1  UNL1       -0.2113
     35 N         144.1690  143.0584  162.3474 N.am    1  UNL1       -0.2638
     36 C         144.1509  144.2094  163.3090 C.2     1  UNL1        0.2718
     37 O         144.1803  145.6178  162.7936 O.2     1  UNL1       -0.2707
     38 C         144.1033  143.9522  164.7860 C.3     1  UNL1        0.2899
     39 O         144.0739  142.5438  165.3014 O.3     1  UNL1       -0.4612
     40 H         144.2002  143.2272  161.3780 H       1  UNL1        0.1565
@<TRIPOS>BOND
     1    24    25    1
     2    25    12    1
     3    12    13   ar
     4    13    14   ar
     5    14    15   ar
     6    15    16   ar
     7    16    17   ar
     8    17    18    1
     9    15    19   ar
    10    19    20   ar
    11    20    21   ar
    12    21    22    2
    13    21    23   ar
    14    23    11    1
    15    11     7    1
    16     7     8    1
    17     7     1    1
    18     1     2    1
    19     2     3    1
    20     3     4    1
    21     4    26    1
    22    26    28    1
    23    28    29    1
    24    29    30   ar
    25    30    31   ar
    26    31    32   ar
    27    32    33   ar
    28    33    34   ar
    29    33    35    1
    30    35    36   am
    31    36    37    2
    32    36    38    1
    33    38    39    1
    34     4     5    1
    35     5     6    1
    36    17    12   ar
    37     6     1    1
    38    23    14   ar
    39    34    29   ar
    40    39    32    1
    41     8     9    1
    42     8    10    1
    43    26    27    1
    44    35    40    1
@<TRIPOS>MOLECULE
*****
 40 44 0 0 0
SMALL
GASTEIGER

@<TRIPOS>ATOM
      1 C         140.6342  139.9797  160.4702 C.3     1  UNL1        0.0162
      2 C         141.2076  138.6696  160.9225 C.3     1  UNL1        0.0028
      3 C         142.5787  138.6203  161.5291 C.3     1  UNL1        0.0158
      4 C         143.3763  139.8813  161.6834 C.3     1  UNL1        0.0543
      5 C         142.8028  141.1915  161.2310 C.3     1  UNL1        0.0158
      6 C         141.4318  141.2407  160.6245 C.3     1  UNL1        0.0028
      7 C         139.2633  140.0289  159.8637 C.3     1  UNL1        0.0737
      8 N         139.0951  139.9009  158.3786 N.3     1  UNL1       -0.3206
      9 H         138.1043  139.9557  158.1427 H       1  UNL1        0.1189
     10 H         139.4689  139.0034  158.0702 H       1  UNL1        0.1189
     11 C         138.0603  140.2061  160.7422 C.3     1  UNL1        0.1245
     12 C         138.4728  144.1294  162.9072 C.ar    1  UNL1        0.1675
     13 C         138.3353  142.8216  162.1856 C.ar    1  UNL1        0.0580
     14 C         138.3549  141.5344  162.9555 C.ar    1  UNL1        0.0833
     15 C         138.5120  141.5550  164.4471 C.ar    1  UNL1        0.0997
     16 C         138.6495  142.8628  165.1687 C.ar    1  UNL1        0.0533
     17 C         138.6299  144.1499  164.3988 C.ar    1  UNL1        0.1754
     18 F         138.7674  145.4577  165.1205 F       1  UNL1       -0.2009
     19 N         138.5316  140.2678  165.2170 N.ar    1  UNL1       -0.2373
     20 C         138.3941  138.9601  164.4953 C.ar    1  UNL1        0.1594
     21 C         138.2370  138.9395  163.0037 C.ar    1  UNL1        0.2803
     22 O         138.0995  137.6317  162.2820 O.2     1  UNL1       -0.2653
     23 N         138.2174  140.2266  162.2337 N.ar    1  UNL1       -0.2913
     24 C         139.7371  146.1343  161.8434 C.3     1  UNL1        0.2526
     25 O         138.4532  145.4166  162.1373 O.3     1  UNL1       -0.4691
     26 N         144.7472  139.8321  162.2899 N.3     1  UNL1       -0.2922
     27 H         145.1968  140.7220  162.0742 H       1  UNL1        0.1236
     28 C         144.9072  139.6126  163.7651 C.3     1  UNL1        0.1353
     29 C         144.0418  140.3634  164.7333 C.ar    1  UNL1        0.1567
     30 N         144.2532  141.8333  164.9444 N.ar    1  UNL1       -0.2245
     31 C         143.3878  142.5841  165.9126 C.ar    1  UNL1        0.1400
     32 C         142.3110  141.8649  166.6698 C.ar    1  UNL1        0.1898
     33 C         142.0996  140.3950  166.4587 C.ar    1  UNL1        0.1715
     34 N         142.9650  139.6442  165.4905 N.ar    1  UNL1       -0.2113
     35 N         141.0228  139.6758  167.2158 N.am    1  UNL1       -0.2638
     36 C         140.1574  140.4265  168.1840 C.2     1  UNL1        0.2718
     37 O         139.0806  139.7074  168.9412 O.2     1  UNL1       -0.2707
     38 C         140.3688  141.8965  168.3951 C.3     1  UNL1        0.2899
     39 O         141.4456  142.6157  167.6380 O.3     1  UNL1       -0.4612
     40 H         140.8840  138.7110  167.0773 H       1  UNL1        0.1565
@<TRIPOS>BOND
     1    24    25    1
     2    25    12    1
     3    12    13   ar
     4    13    14   ar
     5    14    15   ar
     6    15    16   ar
     7    16    17   ar
     8    17    18    1
     9    15    19   ar
    10    19    20   ar
    11    20    21   ar
    12    21    22    2
    13    21    23   ar
    14    23    11    1
    15    11     7    1
    16     7     8    1
    17     7     1    1
    18     1     2    1
    19     2     3    1
    20     3     4    1
    21     4    26    1
    22    26    28    1
    23    28    29    1
    24    29    30   ar
    25    30    31   ar
    26    31    32   ar
    27    32    33   ar
    28    33    34   ar
    29    33    35    1
    30    35    36   am
    31    36    37    2
    32    36    38    1
    33    38    39    1
    34     4     5    1
    35     5     6    1
    36    17    12   ar
    37     6     1    1
    38    23    14   ar
    39    34    29   ar
    40    39    32    1
    41     8     9    1
    42     8    10    1
    43    26    27    1
    44    35    40    1
@<TRIPOS>MOLECULE
*****
 40 44 0 0 0
SMALL
GASTEIGER

@<TRIPOS>ATOM
      1 C         139.4296  137.9911  164.6956 C.3     1  UNL1        0.0162
      2 C         139.0319  138.0358  163.2500 C.3     1  UNL1        0.0028
      3 C         140.0723  137.8801  162.1807 C.3     1  UNL1        0.0158
      4 C         141.5104  137.6797  162.5570 C.3     1  UNL1        0.0543
      5 C         141.9081  137.6350  164.0027 C.3     1  UNL1        0.0158
      6 C         140.8677  137.7907  165.0719 C.3     1  UNL1        0.0028
      7 C         138.3892  138.1469  165.7648 C.3     1  UNL1        0.0737
      8 N         137.6715  136.9408  166.2942 N.3     1  UNL1       -0.3206
      9 H         137.0043  137.2292  167.0098 H       1  UNL1        0.1189
     10 H         138.3474  136.2940  166.7005 H       1  UNL1        0.1189
     11 C         138.0666  139.5087  166.3047 C.3     1  UNL1        0.1245
     12 C         141.5732  140.1535  169.0502 C.ar    1  UNL1        0.1675
     13 C         140.4044  139.9386  168.1351 C.ar    1  UNL1        0.0580
     14 C         140.1755  140.8677  166.9799 C.ar    1  UNL1        0.0833
     15 C         141.1155  142.0116  166.7398 C.ar    1  UNL1        0.0997
     16 C         142.2843  142.2266  167.6550 C.ar    1  UNL1        0.0533
     17 C         142.5132  141.2975  168.8102 C.ar    1  UNL1        0.1754
     18 F         143.6821  141.5125  169.7254 F       1  UNL1       -0.2009
     19 N         140.8866  142.9407  165.5846 N.ar    1  UNL1       -0.2373
     20 C         139.7178  142.7258  164.6695 C.ar    1  UNL1        0.1594
     21 C         138.7777  141.5817  164.9095 C.ar    1  UNL1        0.2803
     22 O         137.6089  141.3668  163.9943 O.2     1  UNL1       -0.2653
     23 N         139.0066  140.6527  166.0647 N.ar    1  UNL1       -0.2913
     24 C         142.9440  138.2525  170.1714 C.3     1  UNL1        0.2526
     25 O         141.8021  139.2244  170.2054 O.3     1  UNL1       -0.4691
     26 N         142.5508  137.5239  161.4878 N.3     1  UNL1       -0.2922
     27 H         142.2755  136.7197  160.9240 H       1  UNL1        0.1236
     28 C         142.8201  138.6497  160.5338 C.3     1  UNL1        0.1353
     29 C         142.8350  140.0654  161.0294 C.ar    1  UNL1        0.1567
     30 N         142.1671  141.1462  160.2320 N.ar    1  UNL1       -0.2245
     31 C         142.1819  142.5619  160.7276 C.ar    1  UNL1        0.1400
     32 C         142.8647  142.8969  162.0205 C.ar    1  UNL1        0.1898
     33 C         143.5326  141.8161  162.8179 C.ar    1  UNL1        0.1715
     34 N         143.5177  140.4003  162.3224 N.ar    1  UNL1       -0.2113
     35 N         144.2153  142.1510  164.1109 N.am    1  UNL1       -0.2638
     36 C         144.2301  143.5667  164.6064 C.2     1  UNL1        0.2718
     37 O         144.9129  143.9016  165.8994 O.2     1  UNL1       -0.2707
     38 C         143.5622  144.6474  163.8090 C.3     1  UNL1        0.2899
     39 O         142.8795  144.3125  162.5161 O.3     1  UNL1       -0.4612
     40 H         144.6536  141.4416  164.6342 H       1  UNL1        0.1565
@<TRIPOS>BOND
     1    24    25    1
     2    25    12    1
     3    12    13   ar
     4    13    14   ar
     5    14    15   ar
     6    15    16   ar
     7    16    17   ar
     8    17    18    1
     9    15    19   ar
    10    19    20   ar
    11    20    21   ar
    12    21    22    2
    13    21    23   ar
    14    23    11    1
    15    11     7    1
    16     7     8    1
    17     7     1    1
    18     1     2    1
    19     2     3    1
    20     3     4    1
    21     4    26    1
    22    26    28    1
    23    28    29    1
    24    29    30   ar
    25    30    31   ar
    26    31    32   ar
    27    32    33   ar
    28    33    34   ar
    29    33    35    1
    30    35    36   am
    31    36    37    2
    32    36    38    1
    33    38    39    1
    34     4     5    1
    35     5     6    1
    36    17    12   ar
    37     6     1    1
    38    23    14   ar
    39    34    29   ar
    40    39    32    1
    41     8     9    1
    42     8    10    1
    43    26    27    1
    44    35    40    1
@<TRIPOS>MOLECULE
*****
 40 44 0 0 0
SMALL
GASTEIGER

@<TRIPOS>ATOM
      1 C         142.3948  144.0328  162.6894 C.3     1  UNL1        0.0162
      2 C         141.1786  144.3411  163.5115 C.3     1  UNL1        0.0028
      3 C         139.8106  144.0835  162.9527 C.3     1  UNL1        0.0158
      4 C         139.6588  143.5175  161.5719 C.3     1  UNL1        0.0543
      5 C         140.8751  143.2092  160.7498 C.3     1  UNL1        0.0158
      6 C         142.2431  143.4668  161.3086 C.3     1  UNL1        0.0028
      7 C         143.7628  144.2904  163.2482 C.3     1  UNL1        0.0737
      8 N         144.7276  145.1605  162.4985 N.3     1  UNL1       -0.3206
      9 H         145.6018  145.2264  163.0197 H       1  UNL1        0.1189
     10 H         144.3281  146.0922  162.3854 H       1  UNL1        0.1189
     11 C         144.1660  143.6780  164.5569 C.3     1  UNL1        0.1245
     12 C         141.3572  141.8392  167.5534 C.ar    1  UNL1        0.1675
     13 C         142.2935  142.4521  166.5546 C.ar    1  UNL1        0.0580
     14 C         143.1899  141.5758  165.7308 C.ar    1  UNL1        0.0833
     15 C         143.1500  140.0866  165.9059 C.ar    1  UNL1        0.0997
     16 C         142.2138  139.4737  166.9047 C.ar    1  UNL1        0.0533
     17 C         141.3174  140.3500  167.7285 C.ar    1  UNL1        0.1754
     18 F         140.3811  139.7370  168.7274 F       1  UNL1       -0.2009
     19 N         144.0464  139.2104  165.0821 N.ar    1  UNL1       -0.2373
     20 C         144.9826  139.8233  164.0832 C.ar    1  UNL1        0.1594
     21 C         145.0225  141.3125  163.9081 C.ar    1  UNL1        0.2803
     22 O         145.9588  141.9254  162.9093 O.2     1  UNL1       -0.2653
     23 N         144.1261  142.1888  164.7319 N.ar    1  UNL1       -0.2913
     24 C         140.7533  142.9302  169.8327 C.3     1  UNL1        0.2526
     25 O         140.4609  142.7155  168.3772 O.3     1  UNL1       -0.4691
     26 N         138.2909  143.2599  161.0131 N.3     1  UNL1       -0.2922
     27 H         138.1924  143.8539  160.1898 H       1  UNL1        0.1236
     28 C         137.9003  141.8731  160.5956 C.3     1  UNL1        0.1353
     29 C         138.1586  140.7134  161.5113 C.ar    1  UNL1        0.1567
     30 N         138.7081  139.4309  160.9606 N.ar    1  UNL1       -0.2245
     31 C         138.9664  138.2713  161.8762 C.ar    1  UNL1        0.1400
     32 C         138.6752  138.3940  163.3426 C.ar    1  UNL1        0.1898
     33 C         138.1257  139.6765  163.8933 C.ar    1  UNL1        0.1715
     34 N         137.8674  140.8362  162.9776 N.ar    1  UNL1       -0.2113
     35 N         137.8345  139.7993  165.3596 N.am    1  UNL1       -0.2638
     36 C         138.0928  138.6396  166.2752 C.2     1  UNL1        0.2718
     37 O         137.8015  138.7624  167.7416 O.2     1  UNL1       -0.2707
     38 C         138.6423  137.3572  165.7245 C.3     1  UNL1        0.2899
     39 O         138.9335  137.2344  164.2582 O.3     1  UNL1       -0.4612
     40 H         137.4738  140.6411  165.7210 H       1  UNL1        0.1565
@<TRIPOS>BOND
     1    24    25    1
     2    25    12    1
     3    12    13   ar
     4    13    14   ar
     5    14    15   ar
     6    15    16   ar
     7    16    17   ar
     8    17    18    1
     9    15    19   ar
    10    19    20   ar
    11    20    21   ar
    12    21    22    2
    13    21    23   ar
    14    23    11    1
    15    11     7    1
    16     7     8    1
    17     7     1    1
    18     1     2    1
    19     2     3    1
    20     3     4    1
    21     4    26    1
    22    26    28    1
    23    28    29    1
    24    29    30   ar
    25    30    31   ar
    26    31    32   ar
    27    32    33   ar
    28    33    34   ar
    29    33    35    1
    30    35    36   am
    31    36    37    2
    32    36    38    1
    33    38    39    1
    34     4     5    1
    35     5     6    1
    36    17    12   ar
    37     6     1    1
    38    23    14   ar
    39    34    29   ar
    40    39    32    1
    41     8     9    1
    42     8    10    1
    43    26    27    1
    44    35    40    1
