@<TRIPOS>MOLECULE
*****
 44 49 0 0 0
SMALL
GASTEIGER

@<TRIPOS>ATOM
      1 C         140.9976  139.5643  159.1504 C.3     1  UNL1        0.0765
      2 C         140.5810  140.4655  158.0260 C.3     1  UNL1        0.0246
      3 C         140.8999  140.0925  156.6086 C.3     1  UNL1        0.0277
      4 C         141.6353  138.8185  156.3155 C.ar    1  UNL1       -0.0258
      5 C         141.9541  138.4456  154.8980 C.ar    1  UNL1       -0.0014
      6 C         142.6895  137.1715  154.6049 C.ar    1  UNL1        0.0371
      7 C         143.1061  136.2703  155.7294 C.ar    1  UNL1        0.1450
      8 C         142.7873  136.6432  157.1469 C.ar    1  UNL1        0.0330
      9 C         142.0518  137.9173  157.4399 C.ar    1  UNL1       -0.0215
     10 C         141.7330  138.2902  158.8574 C.3     1  UNL1        0.0457
     11 C         139.6166  139.1906  161.3191 C.2     1  UNL1        0.2458
     12 O         138.8732  138.0710  160.6528 O.2     1  UNL1       -0.2701
     13 N         140.6788  139.9372  160.5680 N.am    1  UNL1       -0.3021
     14 H         141.1667  140.6720  161.0053 H       1  UNL1        0.1497
     15 C         139.1057  141.3626  164.6011 C.ar    1  UNL1       -0.0097
     16 C         139.4245  140.9897  163.1836 C.ar    1  UNL1        0.0015
     17 C         139.2977  139.5635  162.7367 C.ar    1  UNL1        0.0530
     18 C         138.8522  138.5101  163.7072 C.ar    1  UNL1        0.0083
     19 C         138.5334  138.8831  165.1246 C.ar    1  UNL1        0.0713
     20 C         138.6601  140.3093  165.5716 C.ar    1  UNL1        0.0008
     21 N         140.5796  142.4856  165.6338 N.3     1  UNL1       -0.3200
     22 C         139.2324  142.7889  165.0480 C.3     1  UNL1        0.0581
     23 C         137.8852  143.0921  164.4622 C.3     1  UNL1        0.0185
     24 C         138.0119  144.5184  164.9092 C.3     1  UNL1        0.0033
     25 C         139.3591  144.2151  165.4949 C.3     1  UNL1        0.0185
     26 H         140.8037  141.5025  165.4800 H       1  UNL1        0.1191
     27 H         140.5661  142.6787  166.6352 H       1  UNL1        0.1191
     28 C         138.0878  137.8297  166.0953 C.3     1  UNL1        0.4186
     29 F         137.6423  136.7765  167.0658 F       1  UNL1       -0.1659
     30 F         137.3504  138.8698  166.8854 F       1  UNL1       -0.1659
     31 F         138.8253  136.7896  165.3051 F       1  UNL1       -0.1659
     32 O         143.8415  134.9962  155.4363 O.3     1  UNL1       -0.4537
     33 C         143.1035  133.6903  155.4229 C.ar    1  UNL1        0.1455
     34 C         141.9028  133.5165  154.5409 C.ar    1  UNL1        0.0579
     35 C         141.1648  132.2106  154.5275 C.ar    1  UNL1        0.1034
     36 N         141.6276  131.0786  155.3961 N.ar    1  UNL1       -0.2291
     37 C         142.8284  131.2525  156.2781 C.ar    1  UNL1        0.1330
     38 C         143.5663  132.5583  156.2915 C.ar    1  UNL1        0.0445
     39 C         144.7671  132.7323  157.1735 C.3     1  UNL1        0.0419
     40 C         145.2299  131.6003  158.0421 C.3     1  UNL1        0.0903
     41 C         144.4919  130.2944  158.0287 C.2     1  UNL1        0.2275
     42 O         144.9547  129.1624  158.8973 O.2     1  UNL1       -0.2747
     43 N         143.2912  130.1205  157.1467 N.am    1  UNL1       -0.2695
     44 H         142.8068  129.2635  157.1379 H       1  UNL1        0.1562
@<TRIPOS>BOND
     1    21    22    1
     2    22    15    1
     3    15    16   ar
     4    16    17   ar
     5    17    11    1
     6    11    12    2
     7    11    13   am
     8     1    13    1
     9     1     2    1
    10     2     3    1
    11     3     4    1
    12     4     5   ar
    13     5     6   ar
    14     6     7   ar
    15     7    32    1
    16    32    33    1
    17    33    34   ar
    18    34    35   ar
    19    35    36   ar
    20    36    37   ar
    21    37    38   ar
    22    38    39    1
    23    39    40    1
    24    40    41    1
    25    41    42    2
    26    41    43   am
    27     7     8   ar
    28     8     9   ar
    29     9    10    1
    30    17    18   ar
    31    18    19   ar
    32    19    28    1
    33    28    29    1
    34    28    30    1
    35    28    31    1
    36    19    20   ar
    37    22    23    1
    38    23    24    1
    39    24    25    1
    40    25    22    1
    41    20    15   ar
    42    10     1    1
    43     9     4   ar
    44    38    33   ar
    45    43    37    1
    46    21    26    1
    47    21    27    1
    48    13    14    1
    49    43    44    1
@<TRIPOS>MOLECULE
*****
 44 49 0 0 0
SMALL
GASTEIGER

@<TRIPOS>ATOM
      1 C         142.0438  141.3190  161.9788 C.3     1  UNL1        0.0765
      2 C         143.4066  141.9441  162.0229 C.3     1  UNL1        0.0246
      3 C         144.0045  142.5280  160.7773 C.3     1  UNL1        0.0277
      4 C         143.2396  142.4867  159.4876 C.ar    1  UNL1       -0.0258
      5 C         143.8375  143.0706  158.2419 C.ar    1  UNL1       -0.0014
      6 C         143.0726  143.0294  156.9523 C.ar    1  UNL1        0.0371
      7 C         141.7098  142.4042  156.9083 C.ar    1  UNL1        0.1450
      8 C         141.1119  141.8203  158.1539 C.ar    1  UNL1        0.0330
      9 C         141.8768  141.8616  159.4435 C.ar    1  UNL1       -0.0215
     10 C         141.2789  141.2777  160.6892 C.3     1  UNL1        0.0457
     11 C         140.8129  141.6338  164.2451 C.2     1  UNL1        0.2458
     12 O         140.7778  143.1164  164.0201 O.2     1  UNL1       -0.2701
     13 N         141.4458  140.7351  163.2245 N.am    1  UNL1       -0.3021
     14 H         141.4689  139.7620  163.3722 H       1  UNL1        0.1497
     15 C         139.7817  141.1721  168.0495 C.ar    1  UNL1       -0.0097
     16 C         140.3797  141.7559  166.8039 C.ar    1  UNL1        0.0015
     17 C         140.2149  141.0499  165.4907 C.ar    1  UNL1        0.0530
     18 C         139.4523  139.7601  165.4232 C.ar    1  UNL1        0.0083
     19 C         138.8544  139.1762  166.6688 C.ar    1  UNL1        0.0713
     20 C         139.0191  139.8822  167.9819 C.ar    1  UNL1        0.0008
     21 N         139.4143  140.6718  170.0780 N.3     1  UNL1       -0.3200
     22 C         139.9465  141.8781  169.3627 C.3     1  UNL1        0.0581
     23 C         140.4786  143.0844  168.6473 C.3     1  UNL1        0.0185
     24 C         140.6434  143.7904  169.9605 C.3     1  UNL1        0.0033
     25 C         140.1112  142.5841  170.6758 C.3     1  UNL1        0.0185
     26 H         139.1881  139.9458  169.3982 H       1  UNL1        0.1191
     27 H         138.5732  140.9270  170.5955 H       1  UNL1        0.1191
     28 C         138.0917  137.8863  166.6013 C.3     1  UNL1        0.4186
     29 F         137.3290  136.5965  166.5338 F       1  UNL1       -0.1659
     30 F         137.1738  138.3724  167.6834 F       1  UNL1       -0.1659
     31 F         139.0096  137.4001  165.5191 F       1  UNL1       -0.1659
     32 O         140.9448  142.3629  155.6186 O.3     1  UNL1       -0.4537
     33 C         139.5922  143.0050  155.5280 C.ar    1  UNL1        0.1455
     34 C         138.3544  142.1670  155.6521 C.ar    1  UNL1        0.0579
     35 C         137.0017  142.8092  155.5615 C.ar    1  UNL1        0.1034
     36 N         136.8870  144.2893  155.3468 N.ar    1  UNL1       -0.2291
     37 C         138.1250  145.1273  155.2227 C.ar    1  UNL1        0.1330
     38 C         139.4775  144.4852  155.3133 C.ar    1  UNL1        0.0445
     39 C         140.7155  145.3232  155.1892 C.3     1  UNL1        0.0419
     40 C         140.6008  146.8033  154.9744 C.3     1  UNL1        0.0903
     41 C         139.2481  147.4454  154.8838 C.2     1  UNL1        0.2275
     42 O         139.1334  148.9255  154.6691 O.2     1  UNL1       -0.2747
     43 N         138.0103  146.6074  155.0079 N.am    1  UNL1       -0.2695
     44 H         137.1225  147.0288  154.9485 H       1  UNL1        0.1562
@<TRIPOS>BOND
     1    21    22    1
     2    22    15    1
     3    15    16   ar
     4    16    17   ar
     5    17    11    1
     6    11    12    2
     7    11    13   am
     8     1    13    1
     9     1     2    1
    10     2     3    1
    11     3     4    1
    12     4     5   ar
    13     5     6   ar
    14     6     7   ar
    15     7    32    1
    16    32    33    1
    17    33    34   ar
    18    34    35   ar
    19    35    36   ar
    20    36    37   ar
    21    37    38   ar
    22    38    39    1
    23    39    40    1
    24    40    41    1
    25    41    42    2
    26    41    43   am
    27     7     8   ar
    28     8     9   ar
    29     9    10    1
    30    17    18   ar
    31    18    19   ar
    32    19    28    1
    33    28    29    1
    34    28    30    1
    35    28    31    1
    36    19    20   ar
    37    22    23    1
    38    23    24    1
    39    24    25    1
    40    25    22    1
    41    20    15   ar
    42    10     1    1
    43     9     4   ar
    44    38    33   ar
    45    43    37    1
    46    21    26    1
    47    21    27    1
    48    13    14    1
    49    43    44    1
@<TRIPOS>MOLECULE
*****
 44 49 0 0 0
SMALL
GASTEIGER

@<TRIPOS>ATOM
      1 C         141.1701  138.5863  161.3151 C.3     1  UNL1        0.0765
      2 C         139.7947  138.0173  161.5005 C.3     1  UNL1        0.0246
      3 C         138.9422  138.4745  162.6468 C.3     1  UNL1        0.0277
      4 C         139.4651  139.5008  163.6077 C.ar    1  UNL1       -0.0258
      5 C         138.6125  139.9580  164.7541 C.ar    1  UNL1       -0.0014
      6 C         139.1354  140.9843  165.7150 C.ar    1  UNL1        0.0371
      7 C         140.5109  141.5533  165.5296 C.ar    1  UNL1        0.1450
      8 C         141.3634  141.0960  164.3832 C.ar    1  UNL1        0.0330
      9 C         140.8405  140.0698  163.4223 C.ar    1  UNL1       -0.0215
     10 C         141.6930  139.6126  162.2760 C.3     1  UNL1        0.0457
     11 C         141.7079  138.5803  158.7732 C.2     1  UNL1        0.2458
     12 O         140.5406  139.4888  158.5241 O.2     1  UNL1       -0.2701
     13 N         142.0226  138.1291  160.1687 N.am    1  UNL1       -0.3021
     14 H         142.7888  137.5328  160.3322 H       1  UNL1        0.1497
     15 C         144.1706  138.6693  155.6624 C.ar    1  UNL1       -0.0097
     16 C         143.3181  139.1265  156.8088 C.ar    1  UNL1        0.0015
     17 C         142.5605  138.1231  157.6269 C.ar    1  UNL1        0.0530
     18 C         142.6554  136.6626  157.2986 C.ar    1  UNL1        0.0083
     19 C         143.5080  136.2054  156.1523 C.ar    1  UNL1        0.0713
     20 C         144.2656  137.2088  155.3342 C.ar    1  UNL1        0.0008
     21 N         145.8935  139.8665  155.9760 N.3     1  UNL1       -0.3200
     22 C         144.9282  139.6727  154.8443 C.3     1  UNL1        0.0581
     23 C         143.9629  139.4788  153.7127 C.3     1  UNL1        0.0185
     24 C         144.7205  140.4822  152.8946 C.3     1  UNL1        0.0033
     25 C         145.6858  140.6760  154.0262 C.3     1  UNL1        0.0185
     26 H         145.6266  139.2672  156.7570 H       1  UNL1        0.1191
     27 H         145.8762  140.8418  156.2744 H       1  UNL1        0.1191
     28 C         143.6030  134.7448  155.8240 C.3     1  UNL1        0.4186
     29 F         143.6979  133.2843  155.4957 F       1  UNL1       -0.1659
     30 F         143.2762  135.0456  154.3913 F       1  UNL1       -0.1659
     31 F         143.9298  134.4440  157.2567 F       1  UNL1       -0.1659
     32 O         141.0338  142.5795  166.4905 O.3     1  UNL1       -0.4537
     33 C         140.9174  142.3512  167.9685 C.ar    1  UNL1        0.1455
     34 C         140.1878  143.3428  168.8254 C.ar    1  UNL1        0.0579
     35 C         140.0713  143.1144  170.3034 C.ar    1  UNL1        0.1034
     36 N         140.6845  141.8944  170.9244 N.ar    1  UNL1       -0.2291
     37 C         141.4142  140.9028  170.0674 C.ar    1  UNL1        0.1330
     38 C         141.5306  141.1312  168.5895 C.ar    1  UNL1        0.0445
     39 C         142.2602  140.1396  167.7325 C.3     1  UNL1        0.0419
     40 C         142.8734  138.9196  168.3534 C.3     1  UNL1        0.0903
     41 C         142.7569  138.6912  169.8314 C.2     1  UNL1        0.2275
     42 O         143.3701  137.4712  170.4524 O.2     1  UNL1       -0.2747
     43 N         142.0274  139.6828  170.6883 N.am    1  UNL1       -0.2695
     44 H         141.9509  139.5329  171.6584 H       1  UNL1        0.1562
@<TRIPOS>BOND
     1    21    22    1
     2    22    15    1
     3    15    16   ar
     4    16    17   ar
     5    17    11    1
     6    11    12    2
     7    11    13   am
     8     1    13    1
     9     1     2    1
    10     2     3    1
    11     3     4    1
    12     4     5   ar
    13     5     6   ar
    14     6     7   ar
    15     7    32    1
    16    32    33    1
    17    33    34   ar
    18    34    35   ar
    19    35    36   ar
    20    36    37   ar
    21    37    38   ar
    22    38    39    1
    23    39    40    1
    24    40    41    1
    25    41    42    2
    26    41    43   am
    27     7     8   ar
    28     8     9   ar
    29     9    10    1
    30    17    18   ar
    31    18    19   ar
    32    19    28    1
    33    28    29    1
    34    28    30    1
    35    28    31    1
    36    19    20   ar
    37    22    23    1
    38    23    24    1
    39    24    25    1
    40    25    22    1
    41    20    15   ar
    42    10     1    1
    43     9     4   ar
    44    38    33   ar
    45    43    37    1
    46    21    26    1
    47    21    27    1
    48    13    14    1
    49    43    44    1
@<TRIPOS>MOLECULE
*****
 44 49 0 0 0
SMALL
GASTEIGER

@<TRIPOS>ATOM
      1 C         142.4116  142.4401  159.9858 C.3     1  UNL1        0.0765
      2 C         143.8337  142.9170  159.9763 C.3     1  UNL1        0.0246
      3 C         144.7702  142.5054  161.0733 C.3     1  UNL1        0.0277
      4 C         144.2846  141.6167  162.1799 C.ar    1  UNL1       -0.0258
      5 C         145.2211  141.2051  163.2769 C.ar    1  UNL1       -0.0014
      6 C         144.7355  140.3164  164.3835 C.ar    1  UNL1        0.0371
      7 C         143.3134  139.8395  164.3930 C.ar    1  UNL1        0.1450
      8 C         142.3769  140.2511  163.2960 C.ar    1  UNL1        0.0330
      9 C         142.8625  141.1398  162.1894 C.ar    1  UNL1       -0.0215
     10 C         141.9260  141.5514  161.0924 C.3     1  UNL1        0.0457
     11 C         141.1264  144.2988  158.7039 C.2     1  UNL1        0.2458
     12 O         141.7142  145.3344  159.6161 O.2     1  UNL1       -0.2701
     13 N         141.4750  142.8517  158.8888 N.am    1  UNL1       -0.3021
     14 H         141.0892  142.1721  158.2901 H       1  UNL1        0.1497
     15 C         139.2572  146.5371  156.0120 C.ar    1  UNL1       -0.0097
     16 C         140.1937  146.1254  157.1090 C.ar    1  UNL1        0.0015
     17 C         140.1898  144.7105  157.6069 C.ar    1  UNL1        0.0530
     18 C         139.2494  143.7072  157.0078 C.ar    1  UNL1        0.0083
     19 C         138.3129  144.1189  155.9108 C.ar    1  UNL1        0.0713
     20 C         138.3168  145.5338  155.4129 C.ar    1  UNL1        0.0008
     21 N         138.6162  148.4032  156.7910 N.3     1  UNL1       -0.3200
     22 C         139.2612  147.9521  155.5141 C.3     1  UNL1        0.0581
     23 C         139.9061  147.5009  154.2372 C.3     1  UNL1        0.0185
     24 C         139.9101  148.9159  153.7393 C.3     1  UNL1        0.0033
     25 C         139.2651  149.3670  155.0162 C.3     1  UNL1        0.0185
     26 H         138.4675  147.5983  157.3997 H       1  UNL1        0.1191
     27 H         137.7194  148.8420  156.5824 H       1  UNL1        0.1191
     28 C         137.3724  143.1156  155.3116 C.3     1  UNL1        0.4186
     29 F         136.4320  142.1123  154.7125 F       1  UNL1       -0.1659
     30 F         138.0747  142.0157  156.0510 F       1  UNL1       -0.1659
     31 F         136.6700  144.2155  154.5722 F       1  UNL1       -0.1659
     32 O         142.8278  138.9508  165.4996 O.3     1  UNL1       -0.4537
     33 C         141.5354  139.2585  166.1962 C.ar    1  UNL1        0.1455
     34 C         140.2313  138.8804  165.5589 C.ar    1  UNL1        0.0579
     35 C         138.9389  139.1881  166.2555 C.ar    1  UNL1        0.1034
     36 N         138.9508  139.8739  167.5895 N.ar    1  UNL1       -0.2291
     37 C         140.2550  140.2520  168.2268 C.ar    1  UNL1        0.1330
     38 C         141.5473  139.9443  167.5302 C.ar    1  UNL1        0.0445
     39 C         142.8515  140.3224  168.1676 C.3     1  UNL1        0.0419
     40 C         142.8633  141.0082  169.5016 C.3     1  UNL1        0.0903
     41 C         141.5710  141.3159  170.1982 C.2     1  UNL1        0.2275
     42 O         141.5828  142.0017  171.5322 O.2     1  UNL1       -0.2747
     43 N         140.2669  140.9378  169.5608 N.am    1  UNL1       -0.2695
     44 H         139.4187  141.1398  170.0181 H       1  UNL1        0.1562
@<TRIPOS>BOND
     1    21    22    1
     2    22    15    1
     3    15    16   ar
     4    16    17   ar
     5    17    11    1
     6    11    12    2
     7    11    13   am
     8     1    13    1
     9     1     2    1
    10     2     3    1
    11     3     4    1
    12     4     5   ar
    13     5     6   ar
    14     6     7   ar
    15     7    32    1
    16    32    33    1
    17    33    34   ar
    18    34    35   ar
    19    35    36   ar
    20    36    37   ar
    21    37    38   ar
    22    38    39    1
    23    39    40    1
    24    40    41    1
    25    41    42    2
    26    41    43   am
    27     7     8   ar
    28     8     9   ar
    29     9    10    1
    30    17    18   ar
    31    18    19   ar
    32    19    28    1
    33    28    29    1
    34    28    30    1
    35    28    31    1
    36    19    20   ar
    37    22    23    1
    38    23    24    1
    39    24    25    1
    40    25    22    1
    41    20    15   ar
    42    10     1    1
    43     9     4   ar
    44    38    33   ar
    45    43    37    1
    46    21    26    1
    47    21    27    1
    48    13    14    1
    49    43    44    1
@<TRIPOS>MOLECULE
*****
 44 49 0 0 0
SMALL
GASTEIGER

@<TRIPOS>ATOM
      1 C         143.1252  141.1969  162.1144 C.3     1  UNL1        0.0765
      2 C         143.7932  142.5214  161.8923 C.3     1  UNL1        0.0246
      3 C         144.3123  142.8807  160.5317 C.3     1  UNL1        0.0277
      4 C         144.1635  141.9155  159.3932 C.ar    1  UNL1       -0.0258
      5 C         144.6826  142.2749  158.0325 C.ar    1  UNL1       -0.0014
      6 C         144.5338  141.3097  156.8940 C.ar    1  UNL1        0.0371
      7 C         143.8658  139.9851  157.1161 C.ar    1  UNL1        0.1450
      8 C         143.3467  139.6258  158.4768 C.ar    1  UNL1        0.0330
      9 C         143.4955  140.5910  159.6153 C.ar    1  UNL1       -0.0215
     10 C         142.9764  140.2317  160.9759 C.3     1  UNL1        0.0457
     11 C         141.3029  141.4047  163.9545 C.2     1  UNL1        0.2458
     12 O         140.5188  142.3314  163.0733 O.2     1  UNL1       -0.2701
     13 N         142.6061  140.8375  163.4751 N.am    1  UNL1       -0.3021
     14 H         143.1207  140.2293  164.0535 H       1  UNL1        0.1497
     15 C         140.8619  141.3188  167.8977 C.ar    1  UNL1       -0.0097
     16 C         141.3810  141.6781  166.5370 C.ar    1  UNL1        0.0015
     17 C         140.7837  141.0453  165.3152 C.ar    1  UNL1        0.0530
     18 C         139.6673  140.0532  165.4540 C.ar    1  UNL1        0.0083
     19 C         139.1482  139.6939  166.8146 C.ar    1  UNL1        0.0713
     20 C         139.7455  140.3266  168.0365 C.ar    1  UNL1        0.0008
     21 N         140.0901  142.0922  169.7159 N.3     1  UNL1       -0.3200
     22 C         141.4592  141.9515  169.1195 C.3     1  UNL1        0.0581
     23 C         142.8283  141.8109  168.5230 C.3     1  UNL1        0.0185
     24 C         143.4256  142.4437  169.7448 C.3     1  UNL1        0.0033
     25 C         142.0565  142.5843  170.3413 C.3     1  UNL1        0.0185
     26 H         139.3968  141.7184  169.0678 H       1  UNL1        0.1191
     27 H         139.8951  143.0779  169.8910 H       1  UNL1        0.1191
     28 C         138.0318  138.7017  166.9535 C.3     1  UNL1        0.4186
     29 F         136.9154  137.7096  167.0924 F       1  UNL1       -0.1659
     30 F         137.7971  139.1629  168.3614 F       1  UNL1       -0.1659
     31 F         138.2665  138.2404  165.5457 F       1  UNL1       -0.1659
     32 O         143.7170  139.0199  155.9776 O.3     1  UNL1       -0.4537
     33 C         142.4247  138.2836  155.7826 C.ar    1  UNL1        0.1455
     34 C         141.1543  139.0468  155.5508 C.ar    1  UNL1        0.0579
     35 C         139.8620  138.3105  155.3558 C.ar    1  UNL1        0.1034
     36 N         139.8402  136.8111  155.3926 N.ar    1  UNL1       -0.2291
     37 C         141.1106  136.0480  155.6243 C.ar    1  UNL1        0.1330
     38 C         142.4028  136.7843  155.8193 C.ar    1  UNL1        0.0445
     39 C         143.6733  136.0211  156.0511 C.3     1  UNL1        0.0419
     40 C         143.6515  134.5217  156.0878 C.3     1  UNL1        0.0903
     41 C         142.3592  133.7855  155.8928 C.2     1  UNL1        0.2275
     42 O         142.3373  132.2861  155.9296 O.2     1  UNL1       -0.2747
     43 N         141.0888  134.5486  155.6611 N.am    1  UNL1       -0.2695
     44 H         140.2406  134.0654  155.5331 H       1  UNL1        0.1562
@<TRIPOS>BOND
     1    21    22    1
     2    22    15    1
     3    15    16   ar
     4    16    17   ar
     5    17    11    1
     6    11    12    2
     7    11    13   am
     8     1    13    1
     9     1     2    1
    10     2     3    1
    11     3     4    1
    12     4     5   ar
    13     5     6   ar
    14     6     7   ar
    15     7    32    1
    16    32    33    1
    17    33    34   ar
    18    34    35   ar
    19    35    36   ar
    20    36    37   ar
    21    37    38   ar
    22    38    39    1
    23    39    40    1
    24    40    41    1
    25    41    42    2
    26    41    43   am
    27     7     8   ar
    28     8     9   ar
    29     9    10    1
    30    17    18   ar
    31    18    19   ar
    32    19    28    1
    33    28    29    1
    34    28    30    1
    35    28    31    1
    36    19    20   ar
    37    22    23    1
    38    23    24    1
    39    24    25    1
    40    25    22    1
    41    20    15   ar
    42    10     1    1
    43     9     4   ar
    44    38    33   ar
    45    43    37    1
    46    21    26    1
    47    21    27    1
    48    13    14    1
    49    43    44    1
@<TRIPOS>MOLECULE
*****
 44 49 0 0 0
SMALL
GASTEIGER

@<TRIPOS>ATOM
      1 C         139.4706  143.4436  162.1528 C.3     1  UNL1        0.0765
      2 C         139.8632  144.8901  162.2127 C.3     1  UNL1        0.0246
      3 C         140.2136  145.6248  160.9528 C.3     1  UNL1        0.0277
      4 C         140.1716  144.9131  159.6331 C.ar    1  UNL1       -0.0258
      5 C         140.5221  145.6479  158.3732 C.ar    1  UNL1       -0.0014
      6 C         140.4800  144.9362  157.0534 C.ar    1  UNL1        0.0371
      7 C         140.0874  143.4897  156.9936 C.ar    1  UNL1        0.1450
      8 C         139.7369  142.7549  158.2535 C.ar    1  UNL1        0.0330
      9 C         139.7790  143.4667  159.5732 C.ar    1  UNL1       -0.0215
     10 C         139.4285  142.7319  160.8331 C.3     1  UNL1        0.0457
     11 C         140.2020  142.0809  164.2404 C.2     1  UNL1        0.2458
     12 O         141.6344  142.1878  163.8084 O.2     1  UNL1       -0.2701
     13 N         139.1201  142.7088  163.4127 N.am    1  UNL1       -0.3021
     14 H         138.1799  142.6387  163.6963 H       1  UNL1        0.1497
     15 C         139.8650  141.1935  168.0939 C.ar    1  UNL1       -0.0097
     16 C         140.2155  141.9282  166.8340 C.ar    1  UNL1        0.0015
     17 C         139.8514  141.3461  165.5003 C.ar    1  UNL1        0.0530
     18 C         139.1369  140.0294  165.4265 C.ar    1  UNL1        0.0083
     19 C         138.7864  139.2946  166.6864 C.ar    1  UNL1        0.0713
     20 C         139.1505  139.8767  168.0200 C.ar    1  UNL1        0.0008
     21 N         139.1561  140.9542  170.0789 N.3     1  UNL1       -0.3200
     22 C         140.2290  141.7755  169.4275 C.3     1  UNL1        0.0581
     23 C         141.3020  142.5968  168.7762 C.3     1  UNL1        0.0185
     24 C         141.6660  143.1789  170.1099 C.3     1  UNL1        0.0033
     25 C         140.5931  142.3576  170.7612 C.3     1  UNL1        0.0185
     26 H         138.6795  140.3949  169.3715 H       1  UNL1        0.1191
     27 H         138.4838  141.5720  170.5335 H       1  UNL1        0.1191
     28 C         138.0719  137.9778  166.6126 C.3     1  UNL1        0.4186
     29 F         137.3573  136.6610  166.5389 F       1  UNL1       -0.1659
     30 F         137.1533  138.4145  167.7150 F       1  UNL1       -0.1659
     31 F         138.9904  137.5410  165.5101 F       1  UNL1       -0.1659
     32 O         140.0453  142.7779  155.6739 O.3     1  UNL1       -0.4537
     33 C         139.4954  141.3849  155.5903 C.ar    1  UNL1        0.1455
     34 C         140.4224  140.2074  155.6544 C.ar    1  UNL1        0.0579
     35 C         139.8724  138.8143  155.5708 C.ar    1  UNL1        0.1034
     36 N         138.3954  138.5988  155.4230 N.ar    1  UNL1       -0.2291
     37 C         137.4683  139.7763  155.3588 C.ar    1  UNL1        0.1330
     38 C         138.0183  141.1693  155.4425 C.ar    1  UNL1        0.0445
     39 C         137.0912  142.3468  155.3783 C.3     1  UNL1        0.0419
     40 C         135.6142  142.1313  155.2306 C.3     1  UNL1        0.0903
     41 C         135.0642  140.7382  155.1469 C.2     1  UNL1        0.2275
     42 O         133.5871  140.5226  154.9991 O.2     1  UNL1       -0.2747
     43 N         135.9912  139.5608  155.2111 N.am    1  UNL1       -0.2695
     44 H         135.6303  138.6465  155.1562 H       1  UNL1        0.1562
@<TRIPOS>BOND
     1    21    22    1
     2    22    15    1
     3    15    16   ar
     4    16    17   ar
     5    17    11    1
     6    11    12    2
     7    11    13   am
     8     1    13    1
     9     1     2    1
    10     2     3    1
    11     3     4    1
    12     4     5   ar
    13     5     6   ar
    14     6     7   ar
    15     7    32    1
    16    32    33    1
    17    33    34   ar
    18    34    35   ar
    19    35    36   ar
    20    36    37   ar
    21    37    38   ar
    22    38    39    1
    23    39    40    1
    24    40    41    1
    25    41    42    2
    26    41    43   am
    27     7     8   ar
    28     8     9   ar
    29     9    10    1
    30    17    18   ar
    31    18    19   ar
    32    19    28    1
    33    28    29    1
    34    28    30    1
    35    28    31    1
    36    19    20   ar
    37    22    23    1
    38    23    24    1
    39    24    25    1
    40    25    22    1
    41    20    15   ar
    42    10     1    1
    43     9     4   ar
    44    38    33   ar
    45    43    37    1
    46    21    26    1
    47    21    27    1
    48    13    14    1
    49    43    44    1
@<TRIPOS>MOLECULE
*****
 44 49 0 0 0
SMALL
GASTEIGER

@<TRIPOS>ATOM
      1 C         140.8099  145.1632  161.1584 C.3     1  UNL1        0.0765
      2 C         139.5665  145.8015  161.7029 C.3     1  UNL1        0.0246
      3 C         139.1108  145.4868  163.0969 C.3     1  UNL1        0.0277
      4 C         139.8985  144.5340  163.9464 C.ar    1  UNL1       -0.0258
      5 C         139.4427  144.2194  165.3405 C.ar    1  UNL1       -0.0014
      6 C         140.2304  143.2665  166.1900 C.ar    1  UNL1        0.0371
      7 C         141.4738  142.6282  165.6454 C.ar    1  UNL1        0.1450
      8 C         141.9296  142.9429  164.2514 C.ar    1  UNL1        0.0330
      9 C         141.1419  143.8957  163.4019 C.ar    1  UNL1       -0.0215
     10 C         141.5976  144.2103  162.0079 C.3     1  UNL1        0.0457
     11 C         140.5369  144.8985  158.5883 C.2     1  UNL1        0.2458
     12 O         139.3523  144.0045  158.8062 O.2     1  UNL1       -0.2701
     13 N         141.2657  145.4778  159.7643 N.am    1  UNL1       -0.3021
     14 H         142.0432  146.0646  159.6213 H       1  UNL1        0.1497
     15 C         140.8543  146.6901  155.0613 C.ar    1  UNL1       -0.0097
     16 C         140.3986  146.3754  156.4553 C.ar    1  UNL1        0.0015
     17 C         140.9927  145.2131  157.1942 C.ar    1  UNL1        0.0530
     18 C         142.0425  144.3654  156.5392 C.ar    1  UNL1        0.0083
     19 C         142.4983  144.6800  155.1452 C.ar    1  UNL1        0.0713
     20 C         141.9042  145.8423  154.4062 C.ar    1  UNL1        0.0008
     21 N         139.4983  148.2454  155.5533 N.3     1  UNL1       -0.3200
     22 C         140.2602  147.8524  154.3224 C.3     1  UNL1        0.0581
     23 C         141.0221  147.4594  153.0916 C.3     1  UNL1        0.0185
     24 C         140.4280  148.6217  152.3526 C.3     1  UNL1        0.0033
     25 C         139.6661  149.0147  153.5835 C.3     1  UNL1        0.0185
     26 H         139.7065  147.5893  156.3060 H       1  UNL1        0.1191
     27 H         138.4981  148.2281  155.3540 H       1  UNL1        0.1191
     28 C         143.5482  143.8323  154.4900 C.3     1  UNL1        0.4186
     29 F         144.5980  142.9845  153.8349 F       1  UNL1       -0.1659
     30 F         142.9630  142.6103  155.1336 F       1  UNL1       -0.1659
     31 F         144.1333  145.0543  153.8464 F       1  UNL1       -0.1659
     32 O         142.2615  141.6754  166.4948 O.3     1  UNL1       -0.4537
     33 C         142.1782  141.7590  167.9902 C.ar    1  UNL1        0.1455
     34 C         143.2639  142.4458  168.7646 C.ar    1  UNL1        0.0579
     35 C         143.1806  142.5295  170.2600 C.ar    1  UNL1        0.1034
     36 N         142.0116  141.9263  170.9810 N.ar    1  UNL1       -0.2291
     37 C         140.9260  141.2395  170.2065 C.ar    1  UNL1        0.1330
     38 C         141.0093  141.1559  168.7112 C.ar    1  UNL1        0.0445
     39 C         139.9236  140.4690  167.9368 C.3     1  UNL1        0.0419
     40 C         138.7547  139.8659  168.6577 C.3     1  UNL1        0.0903
     41 C         138.6714  139.9495  170.1531 C.2     1  UNL1        0.2275
     42 O         137.5025  139.3464  170.8741 O.2     1  UNL1       -0.2747
     43 N         139.7570  140.6363  170.9275 N.am    1  UNL1       -0.2695
     44 H         139.7024  140.6912  171.9089 H       1  UNL1        0.1562
@<TRIPOS>BOND
     1    21    22    1
     2    22    15    1
     3    15    16   ar
     4    16    17   ar
     5    17    11    1
     6    11    12    2
     7    11    13   am
     8     1    13    1
     9     1     2    1
    10     2     3    1
    11     3     4    1
    12     4     5   ar
    13     5     6   ar
    14     6     7   ar
    15     7    32    1
    16    32    33    1
    17    33    34   ar
    18    34    35   ar
    19    35    36   ar
    20    36    37   ar
    21    37    38   ar
    22    38    39    1
    23    39    40    1
    24    40    41    1
    25    41    42    2
    26    41    43   am
    27     7     8   ar
    28     8     9   ar
    29     9    10    1
    30    17    18   ar
    31    18    19   ar
    32    19    28    1
    33    28    29    1
    34    28    30    1
    35    28    31    1
    36    19    20   ar
    37    22    23    1
    38    23    24    1
    39    24    25    1
    40    25    22    1
    41    20    15   ar
    42    10     1    1
    43     9     4   ar
    44    38    33   ar
    45    43    37    1
    46    21    26    1
    47    21    27    1
    48    13    14    1
    49    43    44    1
@<TRIPOS>MOLECULE
*****
 44 49 0 0 0
SMALL
GASTEIGER

@<TRIPOS>ATOM
      1 C         140.3756  143.2037  161.6979 C.3     1  UNL1        0.0765
      2 C         140.8195  144.6353  161.7554 C.3     1  UNL1        0.0246
      3 C         140.7729  145.4851  160.5203 C.3     1  UNL1        0.0277
      4 C         140.2824  144.9033  159.2276 C.ar    1  UNL1       -0.0258
      5 C         140.2358  145.7531  157.9924 C.ar    1  UNL1       -0.0014
      6 C         139.7454  145.1713  156.6998 C.ar    1  UNL1        0.0371
      7 C         139.3015  143.7396  156.6423 C.ar    1  UNL1        0.1450
      8 C         139.3481  142.8898  157.8775 C.ar    1  UNL1        0.0330
      9 C         139.8386  143.4716  159.1701 C.ar    1  UNL1       -0.0215
     10 C         139.8851  142.6218  160.4053 C.3     1  UNL1        0.0457
     11 C         139.3620  142.4995  163.9842 C.2     1  UNL1        0.2458
     12 O         138.2552  143.4951  163.8001 O.2     1  UNL1       -0.2701
     13 N         140.4222  142.3538  162.9331 N.am    1  UNL1       -0.3021
     14 H         141.1486  141.7003  163.0539 H       1  UNL1        0.1497
     15 C         140.1891  141.2831  167.6701 C.ar    1  UNL1       -0.0097
     16 C         140.1425  142.1329  166.4350 C.ar    1  UNL1        0.0015
     17 C         139.4086  141.6496  165.2193 C.ar    1  UNL1        0.0530
     18 C         138.7213  140.3165  165.2388 C.ar    1  UNL1        0.0083
     19 C         138.7679  139.4667  166.4740 C.ar    1  UNL1        0.0713
     20 C         139.5018  139.9500  167.6896 C.ar    1  UNL1        0.0008
     21 N         141.5111  140.3994  169.0742 N.3     1  UNL1       -0.3200
     22 C         140.9230  141.7664  168.8858 C.3     1  UNL1        0.0581
     23 C         140.3349  143.1334  168.6974 C.3     1  UNL1        0.0185
     24 C         141.0688  143.6167  169.9130 C.3     1  UNL1        0.0033
     25 C         141.6569  142.2497  170.1014 C.3     1  UNL1        0.0185
     26 H         141.1739  139.7797  168.3375 H       1  UNL1        0.1191
     27 H         141.2308  140.0310  169.9831 H       1  UNL1        0.1191
     28 C         138.0806  138.1335  166.4935 C.3     1  UNL1        0.4186
     29 F         137.3933  136.8004  166.5131 F       1  UNL1       -0.1659
     30 F         137.1620  138.6230  167.5736 F       1  UNL1       -0.1659
     31 F         138.9991  137.6441  165.4134 F       1  UNL1       -0.1659
     32 O         138.8110  143.1578  155.3497 O.3     1  UNL1       -0.4537
     33 C         137.8601  141.9977  155.3624 C.ar    1  UNL1        0.1455
     34 C         136.3856  142.2380  155.4966 C.ar    1  UNL1        0.0579
     35 C         135.4347  141.0779  155.5092 C.ar    1  UNL1        0.1034
     36 N         135.9584  139.6776  155.3876 N.ar    1  UNL1       -0.2291
     37 C         137.4330  139.4373  155.2534 C.ar    1  UNL1        0.1330
     38 C         138.3838  140.5973  155.2408 C.ar    1  UNL1        0.0445
     39 C         139.8584  140.3571  155.1065 C.3     1  UNL1        0.0419
     40 C         140.3821  138.9567  154.9850 C.3     1  UNL1        0.0903
     41 C         139.4312  137.7966  154.9976 C.2     1  UNL1        0.2275
     42 O         139.9549  136.3963  154.8760 O.2     1  UNL1       -0.2747
     43 N         137.9567  138.0369  155.1318 N.am    1  UNL1       -0.2695
     44 H         137.3326  137.2756  155.1401 H       1  UNL1        0.1562
@<TRIPOS>BOND
     1    21    22    1
     2    22    15    1
     3    15    16   ar
     4    16    17   ar
     5    17    11    1
     6    11    12    2
     7    11    13   am
     8     1    13    1
     9     1     2    1
    10     2     3    1
    11     3     4    1
    12     4     5   ar
    13     5     6   ar
    14     6     7   ar
    15     7    32    1
    16    32    33    1
    17    33    34   ar
    18    34    35   ar
    19    35    36   ar
    20    36    37   ar
    21    37    38   ar
    22    38    39    1
    23    39    40    1
    24    40    41    1
    25    41    42    2
    26    41    43   am
    27     7     8   ar
    28     8     9   ar
    29     9    10    1
    30    17    18   ar
    31    18    19   ar
    32    19    28    1
    33    28    29    1
    34    28    30    1
    35    28    31    1
    36    19    20   ar
    37    22    23    1
    38    23    24    1
    39    24    25    1
    40    25    22    1
    41    20    15   ar
    42    10     1    1
    43     9     4   ar
    44    38    33   ar
    45    43    37    1
    46    21    26    1
    47    21    27    1
    48    13    14    1
    49    43    44    1
@<TRIPOS>MOLECULE
*****
 44 49 0 0 0
SMALL
GASTEIGER

@<TRIPOS>ATOM
      1 C         141.6935  138.9756  159.5137 C.3     1  UNL1        0.0765
      2 C         141.1314  139.9881  158.5604 C.3     1  UNL1        0.0246
      3 C         141.2009  139.7455  157.0818 C.3     1  UNL1        0.0277
      4 C         141.8326  138.4905  156.5565 C.ar    1  UNL1       -0.0258
      5 C         141.9022  138.2481  155.0778 C.ar    1  UNL1       -0.0014
      6 C         142.5339  136.9931  154.5525 C.ar    1  UNL1        0.0371
      7 C         143.0960  135.9806  155.5059 C.ar    1  UNL1        0.1450
      8 C         143.0265  136.2231  156.9845 C.ar    1  UNL1        0.0330
      9 C         142.3948  137.4781  157.5098 C.ar    1  UNL1       -0.0215
     10 C         142.3252  137.7206  158.9884 C.3     1  UNL1        0.0457
     11 C         140.3750  138.8783  161.7502 C.2     1  UNL1        0.2458
     12 O         139.1954  138.2960  161.0294 O.2     1  UNL1       -0.2701
     13 N         141.6240  139.2181  160.9924 N.am    1  UNL1       -0.3021
     14 H         142.3982  139.6003  161.4655 H       1  UNL1        0.1497
     15 C         141.2304  140.2730  165.3659 C.ar    1  UNL1       -0.0097
     16 C         141.2999  140.0305  163.8873 C.ar    1  UNL1        0.0015
     17 C         140.3054  139.1208  163.2289 C.ar    1  UNL1        0.0530
     18 C         139.2415  138.4535  164.0491 C.ar    1  UNL1        0.0083
     19 C         139.1720  138.6961  165.5277 C.ar    1  UNL1        0.0713
     20 C         140.1665  139.6058  166.1861 C.ar    1  UNL1        0.0008
     21 N         142.2470  140.2876  167.2277 N.3     1  UNL1       -0.3200
     22 C         142.2248  141.1828  166.0242 C.3     1  UNL1        0.0581
     23 C         142.2027  142.0779  164.8208 C.3     1  UNL1        0.0185
     24 C         143.1971  142.9877  165.4792 C.3     1  UNL1        0.0033
     25 C         143.2193  142.0925  166.6826 C.3     1  UNL1        0.0185
     26 H         141.6145  139.5015  167.0784 H       1  UNL1        0.1191
     27 H         141.9474  140.8139  168.0484 H       1  UNL1        0.1191
     28 C         138.1081  138.0288  166.3480 C.3     1  UNL1        0.4186
     29 F         137.0442  137.3615  167.1683 F       1  UNL1       -0.1659
     30 F         138.3429  136.7452  165.6084 F       1  UNL1       -0.1659
     31 F         137.8733  139.3124  167.0877 F       1  UNL1       -0.1659
     32 O         143.7277  134.7256  154.9806 O.3     1  UNL1       -0.4537
     33 C         142.9930  133.4210  155.0723 C.ar    1  UNL1        0.1455
     34 C         141.8084  133.1636  154.1890 C.ar    1  UNL1        0.0579
     35 C         141.0737  131.8590  154.2807 C.ar    1  UNL1        0.1034
     36 N         141.5237  130.8118  155.2558 N.ar    1  UNL1       -0.2291
     37 C         142.7085  131.0692  156.1391 C.ar    1  UNL1        0.1330
     38 C         143.4431  132.3737  156.0474 C.ar    1  UNL1        0.0445
     39 C         144.6279  132.6311  156.9307 C.3     1  UNL1        0.0419
     40 C         145.0779  131.5838  157.9058 C.3     1  UNL1        0.0903
     41 C         144.3432  130.2792  157.9975 C.2     1  UNL1        0.2275
     42 O         144.7933  129.2320  158.9726 O.2     1  UNL1       -0.2747
     43 N         143.1586  130.0219  157.1142 N.am    1  UNL1       -0.2695
     44 H         142.6764  129.1657  157.1744 H       1  UNL1        0.1562
@<TRIPOS>BOND
     1    21    22    1
     2    22    15    1
     3    15    16   ar
     4    16    17   ar
     5    17    11    1
     6    11    12    2
     7    11    13   am
     8     1    13    1
     9     1     2    1
    10     2     3    1
    11     3     4    1
    12     4     5   ar
    13     5     6   ar
    14     6     7   ar
    15     7    32    1
    16    32    33    1
    17    33    34   ar
    18    34    35   ar
    19    35    36   ar
    20    36    37   ar
    21    37    38   ar
    22    38    39    1
    23    39    40    1
    24    40    41    1
    25    41    42    2
    26    41    43   am
    27     7     8   ar
    28     8     9   ar
    29     9    10    1
    30    17    18   ar
    31    18    19   ar
    32    19    28    1
    33    28    29    1
    34    28    30    1
    35    28    31    1
    36    19    20   ar
    37    22    23    1
    38    23    24    1
    39    24    25    1
    40    25    22    1
    41    20    15   ar
    42    10     1    1
    43     9     4   ar
    44    38    33   ar
    45    43    37    1
    46    21    26    1
    47    21    27    1
    48    13    14    1
    49    43    44    1
