@<TRIPOS>MOLECULE
*****
 24 27 0 0 0
SMALL
GASTEIGER

@<TRIPOS>ATOM
      1 C         141.5265  142.1422  164.6291 C.2     1  UNL1        0.3756
      2 N         141.6733  142.0565  166.1194 N.2     1  UNL1       -0.0230
      3 C         142.3134  140.7400  166.4471 C.2     1  UNL1        0.3133
      4 C         142.7019  140.1100  167.7518 C.2     1  UNL1        0.3704
      5 N         143.3392  138.7523  167.7687 N.2     1  UNL1       -0.0367
      6 C         143.5879  138.0245  166.4809 C.2     1  UNL1        0.2179
      7 C         143.1995  138.6545  165.1762 C.3     1  UNL1        0.1552
      8 C         142.5622  140.0123  165.1593 C.2     1  UNL1        0.2294
      9 N         142.0759  140.8789  164.0357 N.2     1  UNL1       -0.0343
     10 F         139.1576  146.7328  161.5769 F       1  UNL1       -0.2018
     11 C         139.7498  145.5851  162.3400 C.ar    1  UNL1        0.1674
     12 C         141.2390  145.4584  162.4680 C.ar    1  UNL1        0.0322
     13 C         141.8312  144.3108  163.2310 C.ar    1  UNL1        0.0101
     14 C         140.9343  143.2899  163.8660 C.ar    1  UNL1        0.0908
     15 C         139.4451  143.4166  163.7380 C.ar    1  UNL1        0.0396
     16 C         138.8529  144.5642  162.9750 C.ar    1  UNL1        0.1676
     17 F         137.3637  144.6910  162.8470 F       1  UNL1       -0.2018
     18 N         142.4531  140.8379  169.0396 N.pl3   1  UNL1       -0.1845
     19 C         141.4866  140.2799  170.0418 C.3     1  UNL1        0.2196
     20 C         141.2378  141.0077  171.3297 C.3     1  UNL1        0.1202
     21 N         141.9555  142.2936  171.6151 N.3     1  UNL1       -0.2906
     22 C         142.9220  142.8516  170.6128 C.3     1  UNL1        0.1202
     23 C         143.1708  142.1238  169.3251 C.3     1  UNL1        0.2196
     24 H         142.4768  142.1540  172.4807 H       1  UNL1        0.1235
@<TRIPOS>BOND
     1    10    11    1
     2    11    12   ar
     3    12    13   ar
     4    13    14   ar
     5    14     1    1
     6     1     2    2
     7     2     3    1
     8     3     4    2
     9     4    18    1
    10    18    19    1
    11    19    20    1
    12    20    21    1
    13    21    22    1
    14    22    23    1
    15     4     5    1
    16     5     6    2
    17     6     7    1
    18     7     8    1
    19     8     9    2
    20    14    15   ar
    21    15    16   ar
    22    16    17    1
    23    16    11   ar
    24     9     1    1
    25     8     3    1
    26    23    18    1
    27    21    24    1
@<TRIPOS>MOLECULE
*****
 24 27 0 0 0
SMALL
GASTEIGER

@<TRIPOS>ATOM
      1 C         140.5774  141.8834  166.6466 C.2     1  UNL1        0.3756
      2 N         140.2295  141.1064  165.4116 N.2     1  UNL1       -0.0230
      3 C         139.4590  142.0114  164.4964 C.2     1  UNL1        0.3133
      4 C         138.8577  141.7912  163.1400 C.2     1  UNL1        0.3704
      5 N         138.1281  142.9073  162.4529 N.2     1  UNL1       -0.0367
      6 C         138.0000  144.2435  163.1222 C.2     1  UNL1        0.2179
      7 C         138.6013  144.4636  164.4786 C.3     1  UNL1        0.1552
      8 C         139.3309  143.3476  165.1657 C.2     1  UNL1        0.2294
      9 N         140.0220  143.2685  166.4946 N.2     1  UNL1       -0.0343
     10 F         143.6511  139.8145  171.3660 F       1  UNL1       -0.2018
     11 C         142.8826  140.3318  170.1861 C.ar    1  UNL1        0.1674
     12 C         141.6754  139.5900  169.6937 C.ar    1  UNL1        0.0322
     13 C         140.9070  140.1072  168.5139 C.ar    1  UNL1        0.0101
     14 C         141.3458  141.3661  167.8265 C.ar    1  UNL1        0.0908
     15 C         142.5530  142.1079  168.3189 C.ar    1  UNL1        0.0396
     16 C         143.3215  141.5907  169.4987 C.ar    1  UNL1        0.1676
     17 F         144.5287  142.3324  169.9912 F       1  UNL1       -0.2018
     18 N         138.9859  140.4549  162.4706 N.pl3   1  UNL1       -0.1845
     19 C         137.8000  139.5400  162.3892 C.3     1  UNL1        0.2196
     20 C         137.9282  138.2037  161.7199 C.3     1  UNL1        0.1202
     21 N         139.2423  137.7824  161.1320 N.3     1  UNL1       -0.2906
     22 C         140.4282  138.6973  161.2134 C.3     1  UNL1        0.1202
     23 C         140.3000  140.0336  161.8827 C.3     1  UNL1        0.2196
     24 H         139.0774  137.6015  160.1418 H       1  UNL1        0.1235
@<TRIPOS>BOND
     1    10    11    1
     2    11    12   ar
     3    12    13   ar
     4    13    14   ar
     5    14     1    1
     6     1     2    2
     7     2     3    1
     8     3     4    2
     9     4    18    1
    10    18    19    1
    11    19    20    1
    12    20    21    1
    13    21    22    1
    14    22    23    1
    15     4     5    1
    16     5     6    2
    17     6     7    1
    18     7     8    1
    19     8     9    2
    20    14    15   ar
    21    15    16   ar
    22    16    17    1
    23    16    11   ar
    24     9     1    1
    25     8     3    1
    26    23    18    1
    27    21    24    1
@<TRIPOS>MOLECULE
*****
 24 27 0 0 0
SMALL
GASTEIGER

@<TRIPOS>ATOM
      1 C         141.3887  140.6244  164.5833 C.2     1  UNL1        0.3756
      2 N         141.4369  140.7402  166.0780 N.2     1  UNL1       -0.0230
      3 C         140.2095  140.0807  166.6338 C.2     1  UNL1        0.3133
      4 C         139.7223  139.8891  168.0395 C.2     1  UNL1        0.3704
      5 N         138.4284  139.1742  168.2939 N.2     1  UNL1       -0.0367
      6 C         137.6218  138.6508  167.1426 C.2     1  UNL1        0.2179
      7 C         138.1091  138.8423  165.7370 C.3     1  UNL1        0.1552
      8 C         139.4029  139.5573  165.4826 C.2     1  UNL1        0.2294
      9 N         140.1317  139.8933  164.2153 N.2     1  UNL1       -0.0343
     10 F         145.5021  142.7178  160.7495 F       1  UNL1       -0.2018
     11 C         144.4737  142.1944  161.7080 C.ar    1  UNL1        0.1674
     12 C         143.0235  142.1929  161.3249 C.ar    1  UNL1        0.0322
     13 C         141.9951  141.6696  162.2833 C.ar    1  UNL1        0.0101
     14 C         142.4171  141.1478  163.6248 C.ar    1  UNL1        0.0908
     15 C         143.8673  141.1492  164.0079 C.ar    1  UNL1        0.0396
     16 C         144.8957  141.6726  163.0494 C.ar    1  UNL1        0.1676
     17 F         146.3459  141.6741  163.4325 F       1  UNL1       -0.2018
     18 N         140.5289  140.4126  169.1907 N.pl3   1  UNL1       -0.1845
     19 C         140.0290  141.5815  169.9867 C.3     1  UNL1        0.2196
     20 C         140.8357  142.1050  171.1380 C.3     1  UNL1        0.1202
     21 N         142.1423  141.4594  171.4932 N.3     1  UNL1       -0.2906
     22 C         142.6422  140.2905  170.6971 C.3     1  UNL1        0.1202
     23 C         141.8355  139.7671  169.5459 C.3     1  UNL1        0.2196
     24 H         142.0619  141.1445  172.4600 H       1  UNL1        0.1235
@<TRIPOS>BOND
     1    10    11    1
     2    11    12   ar
     3    12    13   ar
     4    13    14   ar
     5    14     1    1
     6     1     2    2
     7     2     3    1
     8     3     4    2
     9     4    18    1
    10    18    19    1
    11    19    20    1
    12    20    21    1
    13    21    22    1
    14    22    23    1
    15     4     5    1
    16     5     6    2
    17     6     7    1
    18     7     8    1
    19     8     9    2
    20    14    15   ar
    21    15    16   ar
    22    16    17    1
    23    16    11   ar
    24     9     1    1
    25     8     3    1
    26    23    18    1
    27    21    24    1
@<TRIPOS>MOLECULE
*****
 24 27 0 0 0
SMALL
GASTEIGER

@<TRIPOS>ATOM
      1 C         141.3212  140.7229  166.6143 C.2     1  UNL1        0.3756
      2 N         140.5443  140.3973  165.3731 N.2     1  UNL1       -0.0230
      3 C         141.5018  139.8469  164.3580 C.2     1  UNL1        0.3133
      4 C         141.3043  139.3571  162.9541 C.2     1  UNL1        0.3704
      5 N         142.4753  138.8527  162.1639 N.2     1  UNL1       -0.0367
      6 C         143.8438  138.8381  162.7777 C.2     1  UNL1        0.2179
      7 C         144.0414  139.3279  164.1817 C.3     1  UNL1        0.1552
      8 C         142.8704  139.8323  164.9718 C.2     1  UNL1        0.2294
      9 N         142.7588  140.3736  166.3663 N.2     1  UNL1       -0.0343
     10 F         139.0733  143.0189  171.6814 F       1  UNL1       -0.2018
     11 C         139.6353  142.4449  170.4145 C.ar    1  UNL1        0.1674
     12 C         139.2986  141.0391  170.0141 C.ar    1  UNL1        0.0322
     13 C         139.8605  140.4651  168.7474 C.ar    1  UNL1        0.0101
     14 C         140.7592  141.2969  167.8811 C.ar    1  UNL1        0.0908
     15 C         141.0959  142.7027  168.2815 C.ar    1  UNL1        0.0396
     16 C         140.5339  143.2767  169.5483 C.ar    1  UNL1        0.1676
     17 F         140.8706  144.6825  169.9487 F       1  UNL1       -0.2018
     18 N         139.9356  139.3718  162.3402 N.pl3   1  UNL1       -0.1845
     19 C         139.4053  140.6302  161.7199 C.3     1  UNL1        0.2196
     20 C         138.0367  140.6449  161.1060 C.3     1  UNL1        0.1202
     21 N         137.1984  139.4010  161.1126 N.3     1  UNL1       -0.2906
     22 C         137.7288  138.1424  161.7331 C.3     1  UNL1        0.1202
     23 C         139.0974  138.1279  162.3468 C.3     1  UNL1        0.2196
     24 H         136.9874  139.1829  160.1388 H       1  UNL1        0.1235
@<TRIPOS>BOND
     1    10    11    1
     2    11    12   ar
     3    12    13   ar
     4    13    14   ar
     5    14     1    1
     6     1     2    2
     7     2     3    1
     8     3     4    2
     9     4    18    1
    10    18    19    1
    11    19    20    1
    12    20    21    1
    13    21    22    1
    14    22    23    1
    15     4     5    1
    16     5     6    2
    17     6     7    1
    18     7     8    1
    19     8     9    2
    20    14    15   ar
    21    15    16   ar
    22    16    17    1
    23    16    11   ar
    24     9     1    1
    25     8     3    1
    26    23    18    1
    27    21    24    1
@<TRIPOS>MOLECULE
*****
 24 27 0 0 0
SMALL
GASTEIGER

@<TRIPOS>ATOM
      1 C         141.9840  139.7255  166.2234 C.2     1  UNL1        0.3756
      2 N         141.0308  139.6687  165.0666 N.2     1  UNL1       -0.0230
      3 C         141.8329  139.4715  163.8144 C.2     1  UNL1        0.3133
      4 C         141.4311  139.3428  162.3749 C.2     1  UNL1        0.3704
      5 N         142.4780  139.1491  161.3184 N.2     1  UNL1       -0.0367
      6 C         143.9268  139.0840  161.7014 C.2     1  UNL1        0.2179
      7 C         144.3286  139.2127  163.1408 C.3     1  UNL1        0.1552
      8 C         143.2817  139.4064  164.1973 C.2     1  UNL1        0.2294
      9 N         143.3751  139.5634  165.6861 N.2     1  UNL1       -0.0343
     10 F         140.4939  140.4701  171.9876 F       1  UNL1       -0.2018
     11 C         140.8664  140.2840  170.5465 C.ar    1  UNL1        0.1674
     12 C         142.3015  140.0742  170.1639 C.ar    1  UNL1        0.0322
     13 C         142.6741  139.8880  168.7229 C.ar    1  UNL1        0.0101
     14 C         141.6115  139.9116  167.6645 C.ar    1  UNL1        0.0908
     15 C         140.1763  140.1214  168.0471 C.ar    1  UNL1        0.0396
     16 C         139.8038  140.3076  169.4881 C.ar    1  UNL1        0.1676
     17 F         138.3687  140.5174  169.8707 F       1  UNL1       -0.2018
     18 N         139.9822  139.4079  161.9920 N.pl3   1  UNL1       -0.1845
     19 C         139.3696  140.7182  161.5947 C.3     1  UNL1        0.2196
     20 C         137.9207  140.7833  161.2118 C.3     1  UNL1        0.1202
     21 N         137.0844  139.5381  161.2262 N.3     1  UNL1       -0.2906
     22 C         137.6971  138.2278  161.6236 C.3     1  UNL1        0.1202
     23 C         139.1459  138.1627  162.0065 C.3     1  UNL1        0.2196
     24 H         136.7190  139.4178  160.2815 H       1  UNL1        0.1235
@<TRIPOS>BOND
     1    10    11    1
     2    11    12   ar
     3    12    13   ar
     4    13    14   ar
     5    14     1    1
     6     1     2    2
     7     2     3    1
     8     3     4    2
     9     4    18    1
    10    18    19    1
    11    19    20    1
    12    20    21    1
    13    21    22    1
    14    22    23    1
    15     4     5    1
    16     5     6    2
    17     6     7    1
    18     7     8    1
    19     8     9    2
    20    14    15   ar
    21    15    16   ar
    22    16    17    1
    23    16    11   ar
    24     9     1    1
    25     8     3    1
    26    23    18    1
    27    21    24    1
@<TRIPOS>MOLECULE
*****
 24 27 0 0 0
SMALL
GASTEIGER

@<TRIPOS>ATOM
      1 C         140.4620  140.3097  166.4153 C.2     1  UNL1        0.3756
      2 N         141.4415  140.7905  165.3861 N.2     1  UNL1       -0.0230
      3 C         141.3957  139.8428  164.2243 C.2     1  UNL1        0.3133
      4 C         142.1416  139.8131  162.9232 C.2     1  UNL1        0.3704
      5 N         141.8797  138.7170  161.9334 N.2     1  UNL1       -0.0367
      6 C         140.8719  137.6505  162.2446 C.2     1  UNL1        0.2179
      7 C         140.1260  137.6801  163.5457 C.3     1  UNL1        0.1552
      8 C         140.3880  138.7763  164.5355 C.2     1  UNL1        0.2294
      9 N         139.8109  139.0649  165.8896 N.2     1  UNL1       -0.0343
     10 F         139.3444  142.9096  171.7061 F       1  UNL1       -0.2018
     11 C         139.6238  142.2596  170.3834 C.ar    1  UNL1        0.1674
     12 C         139.1638  140.8554  170.1257 C.ar    1  UNL1        0.0322
     13 C         139.4432  140.2054  168.8031 C.ar    1  UNL1        0.0101
     14 C         140.1826  140.9597  167.7381 C.ar    1  UNL1        0.0908
     15 C         140.6426  142.3640  167.9957 C.ar    1  UNL1        0.0396
     16 C         140.3632  143.0140  169.3184 C.ar    1  UNL1        0.1676
     17 F         140.8232  144.4182  169.5760 F       1  UNL1       -0.2018
     18 N         143.1494  140.8797  162.6120 N.pl3   1  UNL1       -0.1845
     19 C         142.7751  142.0291  161.7239 C.3     1  UNL1        0.2196
     20 C         143.7830  143.0956  161.4127 C.3     1  UNL1        0.1202
     21 N         145.1651  143.0128  161.9897 N.3     1  UNL1       -0.2906
     22 C         145.5393  141.8634  162.8779 C.3     1  UNL1        0.1202
     23 C         144.5315  140.7969  163.1890 C.3     1  UNL1        0.2196
     24 H         145.3087  143.8639  162.5332 H       1  UNL1        0.1235
@<TRIPOS>BOND
     1    10    11    1
     2    11    12   ar
     3    12    13   ar
     4    13    14   ar
     5    14     1    1
     6     1     2    2
     7     2     3    1
     8     3     4    2
     9     4    18    1
    10    18    19    1
    11    19    20    1
    12    20    21    1
    13    21    22    1
    14    22    23    1
    15     4     5    1
    16     5     6    2
    17     6     7    1
    18     7     8    1
    19     8     9    2
    20    14    15   ar
    21    15    16   ar
    22    16    17    1
    23    16    11   ar
    24     9     1    1
    25     8     3    1
    26    23    18    1
    27    21    24    1
@<TRIPOS>MOLECULE
*****
 24 27 0 0 0
SMALL
GASTEIGER

@<TRIPOS>ATOM
      1 C         139.6376  140.8975  166.0637 C.2     1  UNL1        0.3756
      2 N         139.8509  141.8544  164.9285 N.2     1  UNL1       -0.0230
      3 C         139.4342  141.1697  163.6605 C.2     1  UNL1        0.3133
      4 C         139.4227  141.6246  162.2312 C.2     1  UNL1        0.3704
      5 N         138.9402  140.6995  161.1536 N.2     1  UNL1       -0.0367
      6 C         138.4693  139.3195  161.5052 C.2     1  UNL1        0.2179
      7 C         138.4808  138.8646  162.9346 C.3     1  UNL1        0.1552
      8 C         138.9632  139.7897  164.0122 C.2     1  UNL1        0.2294
      9 N         139.0889  139.6215  165.4974 N.2     1  UNL1       -0.0343
     10 F         140.7782  141.9835  171.8534 F       1  UNL1       -0.2018
     11 C         140.4931  141.7120  170.4059 C.ar    1  UNL1        0.1674
     12 C         140.0606  140.3433  169.9706 C.ar    1  UNL1        0.0322
     13 C         139.7754  140.0718  168.5232 C.ar    1  UNL1        0.0101
     14 C         139.9227  141.1690  167.5112 C.ar    1  UNL1        0.0908
     15 C         140.3552  142.5378  167.9465 C.ar    1  UNL1        0.0396
     16 C         140.6403  142.8093  169.3938 C.ar    1  UNL1        0.1676
     17 F         141.0728  144.1780  169.8292 F       1  UNL1       -0.2018
     18 N         139.8936  143.0047  161.8796 N.pl3   1  UNL1       -0.1845
     19 C         139.1509  144.2035  162.3906 C.3     1  UNL1        0.2196
     20 C         139.6219  145.5837  162.0390 C.3     1  UNL1        0.1202
     21 N         140.8356  145.7648  161.1763 N.3     1  UNL1       -0.2906
     22 C         141.5783  144.5659  160.6653 C.3     1  UNL1        0.1202
     23 C         141.1073  143.1859  161.0170 C.3     1  UNL1        0.2196
     24 H         141.5021  146.3154  161.7177 H       1  UNL1        0.1235
@<TRIPOS>BOND
     1    10    11    1
     2    11    12   ar
     3    12    13   ar
     4    13    14   ar
     5    14     1    1
     6     1     2    2
     7     2     3    1
     8     3     4    2
     9     4    18    1
    10    18    19    1
    11    19    20    1
    12    20    21    1
    13    21    22    1
    14    22    23    1
    15     4     5    1
    16     5     6    2
    17     6     7    1
    18     7     8    1
    19     8     9    2
    20    14    15   ar
    21    15    16   ar
    22    16    17    1
    23    16    11   ar
    24     9     1    1
    25     8     3    1
    26    23    18    1
    27    21    24    1
@<TRIPOS>MOLECULE
*****
 24 27 0 0 0
SMALL
GASTEIGER

@<TRIPOS>ATOM
      1 C         140.3676  140.4098  165.8622 C.2     1  UNL1        0.3756
      2 N         141.4398  140.7685  164.8766 N.2     1  UNL1       -0.0230
      3 C         141.2277  139.9452  163.6407 C.2     1  UNL1        0.3133
      4 C         141.9748  139.8734  162.3420 C.2     1  UNL1        0.3704
      5 N         141.5186  138.9341  161.2652 N.2     1  UNL1       -0.0367
      6 C         140.3153  138.0666  161.4871 C.2     1  UNL1        0.2179
      7 C         139.5681  138.1383  162.7858 C.3     1  UNL1        0.1552
      8 C         140.0243  139.0776  163.8626 C.2     1  UNL1        0.2294
      9 N         139.4928  139.3647  165.2356 N.2     1  UNL1       -0.0343
     10 F         139.6956  142.7446  171.3483 F       1  UNL1       -0.2018
     11 C         139.8636  142.1608  169.9768 C.ar    1  UNL1        0.1674
     12 C         140.4917  142.9769  168.8861 C.ar    1  UNL1        0.0322
     13 C         140.6597  142.3932  167.5147 C.ar    1  UNL1        0.0101
     14 C         140.1996  140.9935  167.2338 C.ar    1  UNL1        0.0908
     15 C         139.5714  140.1774  168.3244 C.ar    1  UNL1        0.0396
     16 C         139.4034  140.7611  169.6959 C.ar    1  UNL1        0.1676
     17 F         138.7753  139.9450  170.7865 F       1  UNL1       -0.2018
     18 N         143.1782  140.7410  162.1202 N.pl3   1  UNL1       -0.1845
     19 C         143.2615  141.6103  160.9006 C.3     1  UNL1        0.2196
     20 C         144.4649  142.4779  160.6787 C.3     1  UNL1        0.1202
     21 N         145.5850  142.4762  161.6765 N.3     1  UNL1       -0.2906
     22 C         145.5016  141.6068  162.8961 C.3     1  UNL1        0.1202
     23 C         144.2983  140.7393  163.1179 C.3     1  UNL1        0.2196
     24 H         145.6876  143.4362  162.0056 H       1  UNL1        0.1235
@<TRIPOS>BOND
     1    10    11    1
     2    11    12   ar
     3    12    13   ar
     4    13    14   ar
     5    14     1    1
     6     1     2    2
     7     2     3    1
     8     3     4    2
     9     4    18    1
    10    18    19    1
    11    19    20    1
    12    20    21    1
    13    21    22    1
    14    22    23    1
    15     4     5    1
    16     5     6    2
    17     6     7    1
    18     7     8    1
    19     8     9    2
    20    14    15   ar
    21    15    16   ar
    22    16    17    1
    23    16    11   ar
    24     9     1    1
    25     8     3    1
    26    23    18    1
    27    21    24    1
@<TRIPOS>MOLECULE
*****
 24 27 0 0 0
SMALL
GASTEIGER

@<TRIPOS>ATOM
      1 C         142.3013  142.2905  166.6673 C.2     1  UNL1        0.3756
      2 N         141.3801  142.5707  165.5171 N.2     1  UNL1       -0.0230
      3 C         142.2178  142.9762  164.3406 C.2     1  UNL1        0.3133
      4 C         141.8562  143.3685  162.9387 C.2     1  UNL1        0.3704
      5 N         142.9334  143.7313  161.9599 N.2     1  UNL1       -0.0367
      6 C         144.3721  143.7017  162.3830 C.2     1  UNL1        0.2179
      7 C         144.7337  143.3094  163.7850 C.3     1  UNL1        0.1552
      8 C         143.6565  142.9466  164.7637 C.2     1  UNL1        0.2294
      9 N         143.7081  142.5229  166.2017 N.2     1  UNL1       -0.0343
     10 F         140.6486  140.5468  172.1654 F       1  UNL1       -0.2018
     11 C         141.0618  140.9827  170.7908 C.ar    1  UNL1        0.1674
     12 C         142.1648  140.2609  170.0749 C.ar    1  UNL1        0.0322
     13 C         142.5779  140.6968  168.7005 C.ar    1  UNL1        0.0101
     14 C         141.8881  141.8546  168.0419 C.ar    1  UNL1        0.0908
     15 C         140.7851  142.5763  168.7577 C.ar    1  UNL1        0.0396
     16 C         140.3720  142.1404  170.1322 C.ar    1  UNL1        0.1676
     17 F         139.2690  142.8622  170.8480 F       1  UNL1       -0.2018
     18 N         140.4173  143.3980  162.5156 N.pl3   1  UNL1       -0.1845
     19 C         139.9514  142.5349  161.3808 C.3     1  UNL1        0.2196
     20 C         138.5126  142.5644  160.9576 C.3     1  UNL1        0.1202
     21 N         137.5397  143.4571  161.6694 N.3     1  UNL1       -0.2906
     22 C         138.0057  144.3203  162.8043 C.3     1  UNL1        0.1202
     23 C         139.4445  144.2907  163.2274 C.3     1  UNL1        0.2196
     24 H         136.8044  142.8551  162.0400 H       1  UNL1        0.1235
@<TRIPOS>BOND
     1    10    11    1
     2    11    12   ar
     3    12    13   ar
     4    13    14   ar
     5    14     1    1
     6     1     2    2
     7     2     3    1
     8     3     4    2
     9     4    18    1
    10    18    19    1
    11    19    20    1
    12    20    21    1
    13    21    22    1
    14    22    23    1
    15     4     5    1
    16     5     6    2
    17     6     7    1
    18     7     8    1
    19     8     9    2
    20    14    15   ar
    21    15    16   ar
    22    16    17    1
    23    16    11   ar
    24     9     1    1
    25     8     3    1
    26    23    18    1
    27    21    24    1
