@<TRIPOS>MOLECULE
*****
 23 23 0 0 0
SMALL
GASTEIGER

@<TRIPOS>ATOM
      1 C         140.9443  140.7862  168.3383 C.ar    1  UNL1        0.1827
      2 N         140.3335  142.0948  168.7439 N.ar    1  UNL1       -0.2222
      3 C         141.0968  143.0371  169.6268 C.ar    1  UNL1        0.1695
      4 CL        140.4860  144.3457  170.0325 Cl      1  UNL1       -0.0584
      5 C         142.4709  142.6708  170.1040 C.ar    1  UNL1        0.1555
      6 N         143.2342  143.6131  170.9869 N.pl3   1  UNL1       -0.3407
      7 N         143.0816  141.3622  169.6984 N.ar    1  UNL1       -0.2127
      8 C         142.3183  140.4200  168.8155 C.ar    1  UNL1        0.1507
      9 N         142.9291  139.1113  168.4098 N.pl3   1  UNL1       -0.3412
     10 H         142.8333  144.4720  171.2532 H       1  UNL1        0.1438
     11 H         144.1360  143.3727  171.3001 H       1  UNL1        0.1438
     12 H         143.8310  138.8709  168.7231 H       1  UNL1        0.1438
     13 H         142.4282  138.4929  167.8304 H       1  UNL1        0.1438
     14 N         138.7566  139.5016  167.7779 N.am    1  UNL1       -0.1695
     15 C         140.1810  139.8440  167.4554 C.2     1  UNL1        0.3283
     16 O         140.8420  139.2440  166.2500 O.2     1  UNL1       -0.2498
     17 H         138.3228  139.8954  168.5690 H       1  UNL1        0.2546
     18 N         136.9560  137.6516  167.4864 N.pl3   1  UNL1       -0.1313
     19 C         137.9933  138.5594  166.8950 C.2     1  UNL1        0.3751
     20 N         138.2675  138.5248  165.4206 N.pl3   1  UNL1       -0.2906
     21 H         136.4550  137.0332  166.9069 H       1  UNL1        0.3060
     22 H         137.7665  137.9064  164.8411 H       1  UNL1        0.2545
     23 H         138.9484  139.1206  165.0324 H       1  UNL1        0.2545
@<TRIPOS>BOND
     1    18    19    2
     2    19    20    1
     3    19    14    1
     4    14    15   am
     5    15    16    2
     6    15     1    1
     7     1     2   ar
     8     2     3   ar
     9     3     4    1
    10     3     5   ar
    11     5     6    1
    12     5     7   ar
    13     7     8   ar
    14     8     9    1
    15     8     1   ar
    16    18    21    1
    17    20    22    1
    18    20    23    1
    19    14    17    1
    20     6    10    1
    21     6    11    1
    22     9    12    1
    23     9    13    1
@<TRIPOS>MOLECULE
*****
 23 23 0 0 0
SMALL
GASTEIGER

@<TRIPOS>ATOM
      1 C         139.9624  140.5775  168.5437 C.ar    1  UNL1        0.1827
      2 N         141.2992  141.1829  168.2330 N.ar    1  UNL1       -0.2222
      3 C         142.1079  141.8163  169.3260 C.ar    1  UNL1        0.1695
      4 CL        143.4447  142.4218  169.0152 Cl      1  UNL1       -0.0584
      5 C         141.5800  141.8443  170.7297 C.ar    1  UNL1        0.1555
      6 N         142.3888  142.4777  171.8227 N.pl3   1  UNL1       -0.3407
      7 N         140.2433  141.2388  171.0404 N.ar    1  UNL1       -0.2127
      8 C         139.4345  140.6054  169.9474 C.ar    1  UNL1        0.1507
      9 N         138.0977  140.0000  170.2582 N.pl3   1  UNL1       -0.3412
     10 H         143.2662  142.8751  171.6187 H       1  UNL1        0.1438
     11 H         142.0423  142.4960  172.7440 H       1  UNL1        0.1438
     12 H         137.7512  140.0183  171.1795 H       1  UNL1        0.1438
     13 H         137.5669  139.5842  169.5408 H       1  UNL1        0.1438
     14 N         139.2662  140.4519  166.0438 N.am    1  UNL1       -0.1695
     15 C         139.1536  139.9441  167.4507 C.2     1  UNL1        0.3283
     16 O         138.2323  138.8028  167.7646 O.2     1  UNL1       -0.2498
     17 H         139.8709  141.2010  165.8378 H       1  UNL1        0.2546
     18 N         138.5861  138.3492  164.6778 N.pl3   1  UNL1       -0.1313
     19 C         138.4574  139.8185  164.9508 C.2     1  UNL1        0.3751
     20 N         137.5199  140.6545  164.1308 N.pl3   1  UNL1       -0.2906
     21 H         138.0552  137.9335  163.9604 H       1  UNL1        0.3060
     22 H         136.9891  140.2388  163.4134 H       1  UNL1        0.2545
     23 H         137.4355  141.6188  164.3100 H       1  UNL1        0.2545
@<TRIPOS>BOND
     1    18    19    2
     2    19    20    1
     3    19    14    1
     4    14    15   am
     5    15    16    2
     6    15     1    1
     7     1     2   ar
     8     2     3   ar
     9     3     4    1
    10     3     5   ar
    11     5     6    1
    12     5     7   ar
    13     7     8   ar
    14     8     9    1
    15     8     1   ar
    16    18    21    1
    17    20    22    1
    18    20    23    1
    19    14    17    1
    20     6    10    1
    21     6    11    1
    22     9    12    1
    23     9    13    1
@<TRIPOS>MOLECULE
*****
 23 23 0 0 0
SMALL
GASTEIGER

@<TRIPOS>ATOM
      1 C         141.8432  142.9163  163.3179 C.ar    1  UNL1        0.1827
      2 N         142.3002  141.6692  164.0148 N.ar    1  UNL1       -0.2222
      3 C         143.7587  141.3201  164.0480 C.ar    1  UNL1        0.1695
      4 CL        144.2157  140.0729  164.7449 Cl      1  UNL1       -0.0584
      5 C         144.7601  142.2183  163.3843 C.ar    1  UNL1        0.1555
      6 N         146.2186  141.8692  163.4176 N.pl3   1  UNL1       -0.3407
      7 N         144.3031  143.4654  162.6874 N.ar    1  UNL1       -0.2127
      8 C         142.8447  143.8144  162.6542 C.ar    1  UNL1        0.1507
      9 N         142.3877  145.0617  161.9573 N.pl3   1  UNL1       -0.3412
     10 H         146.5185  141.0506  163.8750 H       1  UNL1        0.1438
     11 H         146.8758  142.4587  162.9820 H       1  UNL1        0.1438
     12 H         143.0449  145.6511  161.5217 H       1  UNL1        0.1438
     13 H         141.4304  145.2908  161.9354 H       1  UNL1        0.1438
     14 N         139.3828  142.2563  162.8076 N.am    1  UNL1       -0.1695
     15 C         140.3848  143.2654  163.2846 C.2     1  UNL1        0.3283
     16 O         139.9283  144.6235  163.7284 O.2     1  UNL1       -0.2498
     17 H         139.6823  141.3648  162.5163 H       1  UNL1        0.2546
     18 N         136.8951  141.5566  163.0756 N.pl3   1  UNL1       -0.1313
     19 C         137.9243  142.6053  162.7744 C.2     1  UNL1        0.3751
     20 N         137.4951  144.0032  162.4399 N.pl3   1  UNL1       -0.2906
     21 H         135.9379  141.7857  163.0538 H       1  UNL1        0.3060
     22 H         136.5379  144.2323  162.4181 H       1  UNL1        0.2545
     23 H         138.1707  144.6915  162.2422 H       1  UNL1        0.2545
@<TRIPOS>BOND
     1    18    19    2
     2    19    20    1
     3    19    14    1
     4    14    15   am
     5    15    16    2
     6    15     1    1
     7     1     2   ar
     8     2     3   ar
     9     3     4    1
    10     3     5   ar
    11     5     6    1
    12     5     7   ar
    13     7     8   ar
    14     8     9    1
    15     8     1   ar
    16    18    21    1
    17    20    22    1
    18    20    23    1
    19    14    17    1
    20     6    10    1
    21     6    11    1
    22     9    12    1
    23     9    13    1
@<TRIPOS>MOLECULE
*****
 23 23 0 0 0
SMALL
GASTEIGER

@<TRIPOS>ATOM
      1 C         141.7500  143.1317  163.4516 C.ar    1  UNL1        0.1827
      2 N         140.5881  142.3996  164.0549 N.ar    1  UNL1       -0.2222
      3 C         139.1875  142.8637  163.7852 C.ar    1  UNL1        0.1695
      4 CL        138.0255  142.1315  164.3885 Cl      1  UNL1       -0.0584
      5 C         138.9487  144.0599  162.9122 C.ar    1  UNL1        0.1555
      6 N         137.5480  144.5239  162.6426 N.pl3   1  UNL1       -0.3407
      7 N         140.1106  144.7920  162.3090 N.ar    1  UNL1       -0.2127
      8 C         141.5112  144.3279  162.5787 C.ar    1  UNL1        0.1507
      9 N         142.6732  145.0601  161.9753 N.pl3   1  UNL1       -0.3412
     10 H         136.7854  144.0434  163.0385 H       1  UNL1        0.1438
     11 H         137.3913  145.3090  162.0696 H       1  UNL1        0.1438
     12 H         142.5164  145.8452  161.4024 H       1  UNL1        0.1438
     13 H         143.5925  144.7555  162.1523 H       1  UNL1        0.1438
     14 N         143.6143  141.3397  163.2002 N.am    1  UNL1       -0.1695
     15 C         143.1507  142.6677  163.7213 C.2     1  UNL1        0.3283
     16 O         144.0879  143.5316  164.5121 O.2     1  UNL1       -0.2498
     17 H         142.9992  140.7727  162.6812 H       1  UNL1        0.2546
     18 N         146.1727  141.7916  163.2044 N.pl3   1  UNL1       -0.1313
     19 C         145.0150  140.8757  163.4699 C.2     1  UNL1        0.3751
     20 N         145.2578  139.4956  164.0051 N.pl3   1  UNL1       -0.2906
     21 H         147.0920  141.4870  163.3814 H       1  UNL1        0.3060
     22 H         146.1771  139.1910  164.1821 H       1  UNL1        0.2545
     23 H         144.4979  138.8944  164.1794 H       1  UNL1        0.2545
@<TRIPOS>BOND
     1    18    19    2
     2    19    20    1
     3    19    14    1
     4    14    15   am
     5    15    16    2
     6    15     1    1
     7     1     2   ar
     8     2     3   ar
     9     3     4    1
    10     3     5   ar
    11     5     6    1
    12     5     7   ar
    13     7     8   ar
    14     8     9    1
    15     8     1   ar
    16    18    21    1
    17    20    22    1
    18    20    23    1
    19    14    17    1
    20     6    10    1
    21     6    11    1
    22     9    12    1
    23     9    13    1
@<TRIPOS>MOLECULE
*****
 23 23 0 0 0
SMALL
GASTEIGER

@<TRIPOS>ATOM
      1 C         139.5652  140.2702  167.3815 C.ar    1  UNL1        0.1827
      2 N         140.2831  141.2158  166.4648 N.ar    1  UNL1       -0.2222
      3 C         139.8769  141.3174  165.0244 C.ar    1  UNL1        0.1695
      4 CL        140.5948  142.2631  164.1076 Cl      1  UNL1       -0.0584
      5 C         138.7529  140.4734  164.5008 C.ar    1  UNL1        0.1555
      6 N         138.3467  140.5750  163.0604 N.pl3   1  UNL1       -0.3407
      7 N         138.0350  139.5278  165.4175 N.ar    1  UNL1       -0.2127
      8 C         138.4412  139.4262  166.8579 C.ar    1  UNL1        0.1507
      9 N         137.7233  138.4806  167.7747 N.pl3   1  UNL1       -0.3412
     10 H         138.8179  141.1956  162.4587 H       1  UNL1        0.1438
     11 H         137.6090  140.0210  162.7167 H       1  UNL1        0.1438
     12 H         136.9855  137.9266  167.4310 H       1  UNL1        0.1438
     13 H         137.9899  138.4139  168.7201 H       1  UNL1        0.1438
     14 N         141.4064  140.3644  169.2121 N.am    1  UNL1       -0.1695
     15 C         139.9714  140.1686  168.8219 C.2     1  UNL1        0.3283
     16 O         138.9425  139.8714  169.8721 O.2     1  UNL1       -0.2498
     17 H         142.0817  140.5595  168.5228 H       1  UNL1        0.2546
     18 N         140.8657  140.6981  171.7313 N.pl3   1  UNL1       -0.1313
     19 C         141.8126  140.2628  170.6525 C.2     1  UNL1        0.3751
     20 N         143.1658  139.7258  171.0141 N.pl3   1  UNL1       -0.2906
     21 H         141.1323  140.6314  172.6766 H       1  UNL1        0.3060
     22 H         143.4324  139.6591  171.9595 H       1  UNL1        0.2545
     23 H         143.7873  139.4401  170.3060 H       1  UNL1        0.2545
@<TRIPOS>BOND
     1    18    19    2
     2    19    20    1
     3    19    14    1
     4    14    15   am
     5    15    16    2
     6    15     1    1
     7     1     2   ar
     8     2     3   ar
     9     3     4    1
    10     3     5   ar
    11     5     6    1
    12     5     7   ar
    13     7     8   ar
    14     8     9    1
    15     8     1   ar
    16    18    21    1
    17    20    22    1
    18    20    23    1
    19    14    17    1
    20     6    10    1
    21     6    11    1
    22     9    12    1
    23     9    13    1
@<TRIPOS>MOLECULE
*****
 23 23 0 0 0
SMALL
GASTEIGER

@<TRIPOS>ATOM
      1 C         141.5221  139.2046  166.6268 C.ar    1  UNL1        0.1827
      2 N         140.3636  139.8073  167.3648 N.ar    1  UNL1       -0.2222
      3 C         140.4978  140.1518  168.8185 C.ar    1  UNL1        0.1695
      4 CL        139.3392  140.7545  169.5565 Cl      1  UNL1       -0.0584
      5 C         141.7905  139.8937  169.5343 C.ar    1  UNL1        0.1555
      6 N         141.9246  140.2382  170.9880 N.pl3   1  UNL1       -0.3407
      7 N         142.9489  139.2910  168.7963 N.ar    1  UNL1       -0.2127
      8 C         142.8147  138.9465  167.3426 C.ar    1  UNL1        0.1507
      9 N         143.9733  138.3437  166.6046 N.pl3   1  UNL1       -0.3412
     10 H         141.1643  140.6338  171.4724 H       1  UNL1        0.1438
     11 H         142.7731  140.0688  171.4577 H       1  UNL1        0.1438
     12 H         144.8217  138.1743  167.0744 H       1  UNL1        0.1438
     13 H         143.8853  138.1176  165.6505 H       1  UNL1        0.1438
     14 N         140.3766  137.8432  164.7336 N.am    1  UNL1       -0.1695
     15 C         141.3879  138.8601  165.1731 C.2     1  UNL1        0.3283
     16 O         142.2649  139.5324  164.1589 O.2     1  UNL1       -0.2498
     17 H         139.8010  137.4019  165.3992 H       1  UNL1        0.2546
     18 N         141.4493  137.0796  162.4939 N.pl3   1  UNL1       -0.1313
     19 C         140.2424  137.4986  163.2799 C.2     1  UNL1        0.3751
     20 N         138.9013  137.5732  162.6121 N.pl3   1  UNL1       -0.2906
     21 H         141.3612  136.8535  161.5398 H       1  UNL1        0.3060
     22 H         138.8132  137.3471  161.6580 H       1  UNL1        0.2545
     23 H         138.1092  137.8482  163.1280 H       1  UNL1        0.2545
@<TRIPOS>BOND
     1    18    19    2
     2    19    20    1
     3    19    14    1
     4    14    15   am
     5    15    16    2
     6    15     1    1
     7     1     2   ar
     8     2     3   ar
     9     3     4    1
    10     3     5   ar
    11     5     6    1
    12     5     7   ar
    13     7     8   ar
    14     8     9    1
    15     8     1   ar
    16    18    21    1
    17    20    22    1
    18    20    23    1
    19    14    17    1
    20     6    10    1
    21     6    11    1
    22     9    12    1
    23     9    13    1
@<TRIPOS>MOLECULE
*****
 23 23 0 0 0
SMALL
GASTEIGER

@<TRIPOS>ATOM
      1 C         139.8115  140.5014  167.5413 C.ar    1  UNL1        0.1827
      2 N         138.8898  139.3251  167.6709 N.ar    1  UNL1       -0.2222
      3 C         138.4749  138.5592  166.4497 C.ar    1  UNL1        0.1695
      4 CL        137.5531  137.3829  166.5794 Cl      1  UNL1       -0.0584
      5 C         138.9817  138.9696  165.0989 C.ar    1  UNL1        0.1555
      6 N         138.5668  138.2038  163.8777 N.pl3   1  UNL1       -0.3407
      7 N         139.9034  140.1459  164.9693 N.ar    1  UNL1       -0.2127
      8 C         140.3183  140.9117  166.1905 C.ar    1  UNL1        0.1507
      9 N         141.2401  142.0881  166.0609 N.pl3   1  UNL1       -0.3412
     10 H         137.9619  137.4317  163.9628 H       1  UNL1        0.1438
     11 H         138.8995  138.4731  162.9912 H       1  UNL1        0.1438
     12 H         141.5727  142.3574  165.1743 H       1  UNL1        0.1438
     13 H         141.5124  142.5907  166.8624 H       1  UNL1        0.1438
     14 N         140.5928  140.5343  170.0189 N.am    1  UNL1       -0.1695
     15 C         140.2264  141.2672  168.7625 C.2     1  UNL1        0.3283
     16 O         140.2748  142.7660  168.7273 O.2     1  UNL1       -0.2498
     17 H         140.5610  139.5506  170.0420 H       1  UNL1        0.2546
     18 N         142.2150  140.8714  172.0200 N.pl3   1  UNL1       -0.1313
     19 C         141.0077  141.3002  171.2401 C.2     1  UNL1        0.3751
     20 N         140.2151  142.4949  171.6813 N.pl3   1  UNL1       -0.2906
     21 H         142.4873  141.3741  172.8215 H       1  UNL1        0.3060
     22 H         140.4874  142.9976  172.4828 H       1  UNL1        0.2545
     23 H         139.4226  142.7763  171.1694 H       1  UNL1        0.2545
@<TRIPOS>BOND
     1    18    19    2
     2    19    20    1
     3    19    14    1
     4    14    15   am
     5    15    16    2
     6    15     1    1
     7     1     2   ar
     8     2     3   ar
     9     3     4    1
    10     3     5   ar
    11     5     6    1
    12     5     7   ar
    13     7     8   ar
    14     8     9    1
    15     8     1   ar
    16    18    21    1
    17    20    22    1
    18    20    23    1
    19    14    17    1
    20     6    10    1
    21     6    11    1
    22     9    12    1
    23     9    13    1
@<TRIPOS>MOLECULE
*****
 23 23 0 0 0
SMALL
GASTEIGER

@<TRIPOS>ATOM
      1 C         139.6985  139.9844  167.3681 C.ar    1  UNL1        0.1827
      2 N         140.8003  140.4128  166.4449 N.ar    1  UNL1       -0.2222
      3 C         140.8374  139.9038  165.0344 C.ar    1  UNL1        0.1695
      4 CL        141.9394  140.3322  164.1112 Cl      1  UNL1       -0.0584
      5 C         139.7727  138.9663  164.5471 C.ar    1  UNL1        0.1555
      6 N         139.8099  138.4572  163.1366 N.pl3   1  UNL1       -0.3407
      7 N         138.6709  138.5379  165.4703 N.ar    1  UNL1       -0.2127
      8 C         138.6338  139.0469  166.8808 C.ar    1  UNL1        0.1507
      9 N         137.5318  138.6185  167.8040 N.pl3   1  UNL1       -0.3412
     10 H         140.5331  138.7384  162.5307 H       1  UNL1        0.1438
     11 H         139.1110  137.8419  162.8168 H       1  UNL1        0.1438
     12 H         136.8330  138.0032  167.4842 H       1  UNL1        0.1438
     13 H         137.5074  138.9526  168.7298 H       1  UNL1        0.1438
     14 N         140.1630  141.8719  169.0919 N.am    1  UNL1       -0.1695
     15 C         139.6613  140.4935  168.7786 C.2     1  UNL1        0.3283
     16 O         139.1225  139.6241  169.8758 O.2     1  UNL1       -0.2498
     17 H         140.5166  142.4425  168.3718 H       1  UNL1        0.2546
     18 N         140.6022  141.5100  171.6269 N.pl3   1  UNL1       -0.1313
     19 C         140.1258  142.3810  170.5024 C.2     1  UNL1        0.3751
     20 N         139.6124  143.7611  170.7884 N.pl3   1  UNL1       -0.2906
     21 H         140.5778  141.8441  172.5526 H       1  UNL1        0.3060
     22 H         139.5880  144.0952  171.7141 H       1  UNL1        0.2545
     23 H         139.2998  144.3327  170.0503 H       1  UNL1        0.2545
@<TRIPOS>BOND
     1    18    19    2
     2    19    20    1
     3    19    14    1
     4    14    15   am
     5    15    16    2
     6    15     1    1
     7     1     2   ar
     8     2     3   ar
     9     3     4    1
    10     3     5   ar
    11     5     6    1
    12     5     7   ar
    13     7     8   ar
    14     8     9    1
    15     8     1   ar
    16    18    21    1
    17    20    22    1
    18    20    23    1
    19    14    17    1
    20     6    10    1
    21     6    11    1
    22     9    12    1
    23     9    13    1
@<TRIPOS>MOLECULE
*****
 23 23 0 0 0
SMALL
GASTEIGER

@<TRIPOS>ATOM
      1 C         139.2203  139.7843  166.3751 C.ar    1  UNL1        0.1827
      2 N         140.1542  140.9124  166.6994 N.ar    1  UNL1       -0.2222
      3 C         140.3014  141.3804  168.1169 C.ar    1  UNL1        0.1695
      4 CL        141.2353  142.5086  168.4411 Cl      1  UNL1       -0.0584
      5 C         139.5148  140.7202  169.2102 C.ar    1  UNL1        0.1555
      6 N         139.6620  141.1881  170.6277 N.pl3   1  UNL1       -0.3407
      7 N         138.5809  139.5920  168.8859 N.ar    1  UNL1       -0.2127
      8 C         138.4337  139.1241  167.4684 C.ar    1  UNL1        0.1507
      9 N         137.4998  137.9959  167.1442 N.pl3   1  UNL1       -0.3412
     10 H         140.2749  141.9286  170.8405 H       1  UNL1        0.1438
     11 H         139.1457  140.7548  171.3452 H       1  UNL1        0.1438
     12 H         136.9835  137.5626  167.8618 H       1  UNL1        0.1438
     13 H         137.4031  137.6887  166.2139 H       1  UNL1        0.1438
     14 N         139.8919  138.1623  164.4599 N.am    1  UNL1       -0.1695
     15 C         139.0731  139.3163  164.9576 C.2     1  UNL1        0.3283
     16 O         138.1071  140.0024  164.0378 O.2     1  UNL1       -0.2498
     17 H         140.5260  137.7120  165.0636 H       1  UNL1        0.2546
     18 N         140.9622  137.3585  162.2332 N.pl3   1  UNL1       -0.1313
     19 C         139.7447  137.6944  163.0424 C.2     1  UNL1        0.3751
     20 N         138.3799  137.5623  162.4341 N.pl3   1  UNL1       -0.2906
     21 H         140.8656  137.0513  161.3028 H       1  UNL1        0.3060
     22 H         138.2833  137.2552  161.5037 H       1  UNL1        0.2545
     23 H         137.5808  137.7828  162.9652 H       1  UNL1        0.2545
@<TRIPOS>BOND
     1    18    19    2
     2    19    20    1
     3    19    14    1
     4    14    15   am
     5    15    16    2
     6    15     1    1
     7     1     2   ar
     8     2     3   ar
     9     3     4    1
    10     3     5   ar
    11     5     6    1
    12     5     7   ar
    13     7     8   ar
    14     8     9    1
    15     8     1   ar
    16    18    21    1
    17    20    22    1
    18    20    23    1
    19    14    17    1
    20     6    10    1
    21     6    11    1
    22     9    12    1
    23     9    13    1
