@<TRIPOS>MOLECULE
*****
 32 36 0 0 0
SMALL
GASTEIGER

@<TRIPOS>ATOM
      1 N         142.8683  138.9167  163.4608 N.3     1  UNL1       -0.2726
      2 C         144.0452  139.2313  162.5856 C.3     1  UNL1        0.0721
      3 C         144.6785  140.4917  163.0959 C.3     1  UNL1        0.0190
      4 C         143.8930  140.9560  164.2865 C.3     1  UNL1        0.0201
      5 C         144.7269  142.1725  164.5598 C.3     1  UNL1        0.0061
      6 C         143.5500  141.8579  165.4350 C.3     1  UNL1        0.0237
      7 C         142.7742  139.9826  164.5119 C.3     1  UNL1        0.0724
      8 C         142.6725  142.1969  166.6033 C.ar    1  UNL1       -0.0225
      9 C         143.2377  142.1898  167.9928 C.ar    1  UNL1       -0.0043
     10 C         142.3602  142.5288  169.1611 C.ar    1  UNL1        0.0035
     11 C         140.9175  142.8749  168.9400 C.ar    1  UNL1        0.0714
     12 C         140.3523  142.8819  167.5506 C.ar    1  UNL1        0.0035
     13 C         141.2298  142.5429  166.3822 C.ar    1  UNL1       -0.0043
     14 C         140.0400  143.2139  170.1084 C.3     1  UNL1        0.4186
     15 F         139.1625  143.5528  171.2768 F       1  UNL1       -0.1659
     16 F         140.5561  144.6221  170.0873 F       1  UNL1       -0.1659
     17 F         139.5240  141.8056  170.1294 F       1  UNL1       -0.1659
     18 C         141.9472  137.7423  163.3110 C.3     1  UNL1        0.0730
     19 C         141.1469  137.2624  164.4854 C.3     1  UNL1        0.0294
     20 C         139.6543  137.4116  164.4873 C.3     1  UNL1        0.0666
     21 S         138.9880  138.2990  163.4780 S.3     1  UNL1       -0.0756
     22 C         140.3459  140.7284  161.7740 C.3     1  UNL1        0.1340
     23 N         139.4562  140.8815  162.9719 N.ar    1  UNL1       -0.2884
     24 C         138.8321  139.7649  163.7552 C.ar    1  UNL1        0.1932
     25 N         138.0246  140.3714  164.8643 N.ar    1  UNL1       -0.1221
     26 N         138.1497  141.8630  164.7665 N.ar    1  UNL1       -0.1281
     27 C         139.0345  142.1783  163.5970 C.ar    1  UNL1        0.1700
     28 C         139.4283  143.5496  163.1339 C.ar    1  UNL1        0.0766
     29 C         140.8256  144.0916  163.0714 C.ar    1  UNL1        0.0469
     30 C         140.7549  145.4966  162.5508 C.ar    1  UNL1        0.1799
     31 O         139.3140  145.8229  162.2916 O.2     1  UNL1       -0.4472
     32 C         138.4941  144.6196  162.6519 C.ar    1  UNL1        0.1827
@<TRIPOS>BOND
     1    22    23    1
     2    23    24   ar
     3    24    21    1
     4    21    20    1
     5    20    19    1
     6    19    18    1
     7    18     1    1
     8     1     2    1
     9     2     3    1
    10     4     3    1
    11     4     5    1
    12     5     6    1
    13     6     8    1
    14     8     9   ar
    15     9    10   ar
    16    10    11   ar
    17    11    14    1
    18    14    15    1
    19    14    16    1
    20    14    17    1
    21    11    12   ar
    22    12    13   ar
    23     4     7    1
    24    24    25   ar
    25    25    26   ar
    26    26    27   ar
    27    27    28    1
    28    28    29   ar
    29    29    30   ar
    30    30    31   ar
    31    31    32   ar
    32    27    23   ar
    33    32    28   ar
    34     7     1    1
    35     6     4    1
    36    13     8   ar
@<TRIPOS>MOLECULE
*****
 32 36 0 0 0
SMALL
GASTEIGER

@<TRIPOS>ATOM
      1 N         141.1478  138.2283  163.4365 N.3     1  UNL1       -0.2726
      2 C         139.8631  137.5189  163.1264 C.3     1  UNL1        0.0721
      3 C         138.9013  137.7917  164.2447 C.3     1  UNL1        0.0190
      4 C         139.5917  138.6698  165.2459 C.3     1  UNL1        0.0201
      5 C         138.4350  138.7632  166.1965 C.3     1  UNL1        0.0061
      6 C         139.7198  139.4726  166.5066 C.3     1  UNL1        0.0237
      7 C         140.9801  138.9396  164.7465 C.3     1  UNL1        0.0724
      8 C         140.5355  140.3456  167.4134 C.ar    1  UNL1       -0.0225
      9 C         139.9906  141.6652  167.8738 C.ar    1  UNL1       -0.0043
     10 C         140.8063  142.5382  168.7806 C.ar    1  UNL1        0.0035
     11 C         142.1669  142.0917  169.2271 C.ar    1  UNL1        0.0714
     12 C         142.7118  140.7722  168.7667 C.ar    1  UNL1        0.0035
     13 C         141.8961  139.8991  167.8599 C.ar    1  UNL1       -0.0043
     14 C         142.9826  142.9648  170.1339 C.3     1  UNL1        0.4186
     15 F         143.7984  143.8378  171.0408 F       1  UNL1       -0.1659
     16 F         141.8276  143.9135  170.2595 F       1  UNL1       -0.1659
     17 F         144.1376  142.0160  170.0083 F       1  UNL1       -0.1659
     18 C         142.3834  138.2267  162.5860 C.3     1  UNL1        0.0730
     19 C         143.6523  138.8350  163.1055 C.3     1  UNL1        0.0294
     20 C         144.4311  139.7903  162.2506 C.3     1  UNL1        0.0666
     21 S         144.5270  141.2363  162.6378 S.3     1  UNL1       -0.0756
     22 C         141.3919  141.8242  161.9486 C.3     1  UNL1        0.1340
     23 N         142.0743  142.1014  163.2553 N.ar    1  UNL1       -0.2884
     24 C         143.5154  141.8311  163.5721 C.ar    1  UNL1        0.1932
     25 N         143.7673  142.2601  164.9872 N.ar    1  UNL1       -0.1221
     26 N         142.4819  142.7955  165.5450 N.ar    1  UNL1       -0.1281
     27 C         141.4356  142.6974  164.4747 C.ar    1  UNL1        0.1700
     28 C         140.0022  143.1210  164.6014 C.ar    1  UNL1        0.0766
     29 C         139.5174  144.4840  164.9981 C.ar    1  UNL1        0.0469
     30 C         138.0176  144.4613  164.9956 C.ar    1  UNL1        0.1799
     31 O         137.5755  143.0844  164.5973 O.2     1  UNL1       -0.4472
     32 C         138.8020  142.2560  164.3537 C.ar    1  UNL1        0.1827
@<TRIPOS>BOND
     1    22    23    1
     2    23    24   ar
     3    24    21    1
     4    21    20    1
     5    20    19    1
     6    19    18    1
     7    18     1    1
     8     1     2    1
     9     2     3    1
    10     4     3    1
    11     4     5    1
    12     5     6    1
    13     6     8    1
    14     8     9   ar
    15     9    10   ar
    16    10    11   ar
    17    11    14    1
    18    14    15    1
    19    14    16    1
    20    14    17    1
    21    11    12   ar
    22    12    13   ar
    23     4     7    1
    24    24    25   ar
    25    25    26   ar
    26    26    27   ar
    27    27    28    1
    28    28    29   ar
    29    29    30   ar
    30    30    31   ar
    31    31    32   ar
    32    27    23   ar
    33    32    28   ar
    34     7     1    1
    35     6     4    1
    36    13     8   ar
@<TRIPOS>MOLECULE
*****
 32 36 0 0 0
SMALL
GASTEIGER

@<TRIPOS>ATOM
      1 N         143.3146  143.4338  163.0526 N.3     1  UNL1       -0.2726
      2 C         143.1425  144.9096  162.8467 C.3     1  UNL1        0.0721
      3 C         141.7936  145.2972  163.3762 C.3     1  UNL1        0.0190
      4 C         141.1321  144.0610  163.9094 C.3     1  UNL1        0.0201
      5 C         139.8663  144.7367  164.3465 C.3     1  UNL1        0.0061
      6 C         140.0384  143.2609  164.5524 C.3     1  UNL1        0.0237
      7 C         142.0722  142.9094  163.7094 C.3     1  UNL1        0.0724
      8 C         139.5063  141.9469  165.0425 C.ar    1  UNL1       -0.0225
      9 C         139.7984  141.4947  166.4426 C.ar    1  UNL1       -0.0043
     10 C         139.2663  140.1807  166.9327 C.ar    1  UNL1        0.0035
     11 C         138.4422  139.3188  166.0228 C.ar    1  UNL1        0.0714
     12 C         138.1501  139.7710  164.6227 C.ar    1  UNL1        0.0035
     13 C         138.6822  141.0851  164.1326 C.ar    1  UNL1       -0.0043
     14 C         137.9101  138.0048  166.5129 C.3     1  UNL1        0.4186
     15 F         137.3780  136.6907  167.0030 F       1  UNL1       -0.1659
     16 F         137.3513  138.6843  167.7278 F       1  UNL1       -0.1659
     17 F         138.4689  137.3254  165.2980 F       1  UNL1       -0.1659
     18 C         144.5179  142.6245  162.6691 C.3     1  UNL1        0.0730
     19 C         145.4344  142.0938  163.7313 C.3     1  UNL1        0.0294
     20 C         145.3635  140.6495  164.1303 C.3     1  UNL1        0.0666
     21 S         144.0363  140.0192  164.4322 S.3     1  UNL1       -0.0756
     22 C         143.2181  142.4134  166.4932 C.3     1  UNL1        0.1340
     23 N         143.2191  140.9456  166.8026 N.ar    1  UNL1       -0.2884
     24 C         143.5951  139.8451  165.8552 C.ar    1  UNL1        0.1932
     25 N         143.4526  138.5400  166.5807 N.ar    1  UNL1       -0.1221
     26 N         142.9884  138.8339  167.9765 N.ar    1  UNL1       -0.1281
     27 C         142.8440  140.3206  168.1137 C.ar    1  UNL1        0.1700
     28 C         142.4023  141.0537  169.3456 C.ar    1  UNL1        0.0766
     29 C         141.1458  140.7944  170.1228 C.ar    1  UNL1        0.0469
     30 C         141.1064  141.7552  171.2741 C.ar    1  UNL1        0.1799
     31 O         142.3385  142.6081  171.2084 O.2     1  UNL1       -0.4472
     32 C         143.1395  142.1746  170.0165 C.ar    1  UNL1        0.1827
@<TRIPOS>BOND
     1    22    23    1
     2    23    24   ar
     3    24    21    1
     4    21    20    1
     5    20    19    1
     6    19    18    1
     7    18     1    1
     8     1     2    1
     9     2     3    1
    10     4     3    1
    11     4     5    1
    12     5     6    1
    13     6     8    1
    14     8     9   ar
    15     9    10   ar
    16    10    11   ar
    17    11    14    1
    18    14    15    1
    19    14    16    1
    20    14    17    1
    21    11    12   ar
    22    12    13   ar
    23     4     7    1
    24    24    25   ar
    25    25    26   ar
    26    26    27   ar
    27    27    28    1
    28    28    29   ar
    29    29    30   ar
    30    30    31   ar
    31    31    32   ar
    32    27    23   ar
    33    32    28   ar
    34     7     1    1
    35     6     4    1
    36    13     8   ar
@<TRIPOS>MOLECULE
*****
 32 36 0 0 0
SMALL
GASTEIGER

@<TRIPOS>ATOM
      1 N         143.5643  143.4807  163.8075 N.3     1  UNL1       -0.2726
      2 C         143.3837  144.9451  163.5375 C.3     1  UNL1        0.0721
      3 C         141.9686  145.3081  163.8777 C.3     1  UNL1        0.0190
      4 C         141.2747  144.0680  164.3581 C.3     1  UNL1        0.0201
      5 C         139.9466  144.7187  164.6089 C.3     1  UNL1        0.0061
      6 C         140.1272  143.2543  164.8790 C.3     1  UNL1        0.0237
      7 C         142.2609  142.9386  164.3147 C.3     1  UNL1        0.0724
      8 C         139.5691  141.9391  165.3356 C.ar    1  UNL1       -0.0225
      9 C         138.4858  141.2685  164.5438 C.ar    1  UNL1       -0.0043
     10 C         137.9276  139.9533  165.0004 C.ar    1  UNL1        0.0035
     11 C         138.4527  139.3086  166.2489 C.ar    1  UNL1        0.0714
     12 C         139.5360  139.9791  167.0407 C.ar    1  UNL1        0.0035
     13 C         140.0942  141.2944  166.5840 C.ar    1  UNL1       -0.0043
     14 C         137.8946  137.9933  166.7055 C.3     1  UNL1        0.4186
     15 F         137.3363  136.6780  167.1622 F       1  UNL1       -0.1659
     16 F         138.6167  137.2992  165.5890 F       1  UNL1       -0.1659
     17 F         137.1724  138.6875  167.8220 F       1  UNL1       -0.1659
     18 C         144.8267  142.6961  163.6058 C.3     1  UNL1        0.0730
     19 C         145.0534  141.9575  162.3202 C.3     1  UNL1        0.0294
     20 C         145.0336  142.6982  161.0159 C.3     1  UNL1        0.0666
     21 S         143.9098  142.4803  160.0466 S.3     1  UNL1       -0.0756
     22 C         142.8505  139.4368  160.5611 C.3     1  UNL1        0.1340
     23 N         142.0637  140.6939  160.7855 N.ar    1  UNL1       -0.2884
     24 C         142.5506  142.0929  160.5491 C.ar    1  UNL1        0.1932
     25 N         141.4396  143.0365  160.9033 N.ar    1  UNL1       -0.1221
     26 N         140.2661  142.2207  161.3586 N.ar    1  UNL1       -0.1281
     27 C         140.6517  140.7729  161.2859 C.ar    1  UNL1        0.1700
     28 C         139.7787  139.6086  161.6496 C.ar    1  UNL1        0.0766
     29 C         138.3645  139.3923  161.1988 C.ar    1  UNL1        0.0469
     30 C         137.8784  138.1062  161.7985 C.ar    1  UNL1        0.1799
     31 O         138.9923  137.5277  162.6200 O.2     1  UNL1       -0.4472
     32 C         140.1667  138.4562  162.5279 C.ar    1  UNL1        0.1827
@<TRIPOS>BOND
     1    22    23    1
     2    23    24   ar
     3    24    21    1
     4    21    20    1
     5    20    19    1
     6    19    18    1
     7    18     1    1
     8     1     2    1
     9     2     3    1
    10     4     3    1
    11     4     5    1
    12     5     6    1
    13     6     8    1
    14     8     9   ar
    15     9    10   ar
    16    10    11   ar
    17    11    14    1
    18    14    15    1
    19    14    16    1
    20    14    17    1
    21    11    12   ar
    22    12    13   ar
    23     4     7    1
    24    24    25   ar
    25    25    26   ar
    26    26    27   ar
    27    27    28    1
    28    28    29   ar
    29    29    30   ar
    30    30    31   ar
    31    31    32   ar
    32    27    23   ar
    33    32    28   ar
    34     7     1    1
    35     6     4    1
    36    13     8   ar
@<TRIPOS>MOLECULE
*****
 32 36 0 0 0
SMALL
GASTEIGER

@<TRIPOS>ATOM
      1 N         143.0808  143.1236  161.8185 N.3     1  UNL1       -0.2726
      2 C         144.4026  142.8161  161.1795 C.3     1  UNL1        0.0721
      3 C         145.1874  141.9586  162.1275 C.3     1  UNL1        0.0190
      4 C         144.3507  141.7362  163.3524 C.3     1  UNL1        0.0201
      5 C         145.3542  140.8881  164.0760 C.3     1  UNL1        0.0061
      6 C         144.0325  141.1956  164.7150 C.3     1  UNL1        0.0237
      7 C         143.0487  142.4562  163.1614 C.3     1  UNL1        0.0724
      8 C         143.0857  141.0612  165.8706 C.ar    1  UNL1       -0.0225
      9 C         143.0009  142.1478  166.9012 C.ar    1  UNL1       -0.0043
     10 C         142.0541  142.0133  168.0568 C.ar    1  UNL1        0.0035
     11 C         141.1920  140.7922  168.1818 C.ar    1  UNL1        0.0714
     12 C         141.2768  139.7055  167.1512 C.ar    1  UNL1        0.0035
     13 C         142.2236  139.8400  165.9956 C.ar    1  UNL1       -0.0043
     14 C         140.2452  140.6577  169.3374 C.3     1  UNL1        0.4186
     15 F         139.2983  140.5231  170.4930 F       1  UNL1       -0.1659
     16 F         141.1554  141.5000  170.1812 F       1  UNL1       -0.1659
     17 F         139.3350  139.8154  168.4936 F       1  UNL1       -0.1659
     18 C         141.9838  143.9530  161.2197 C.3     1  UNL1        0.0730
     19 C         141.4271  145.1210  161.9785 C.3     1  UNL1        0.0294
     20 C         139.9992  145.5344  161.7776 C.3     1  UNL1        0.0666
     21 S         138.9392  145.0541  162.7239 S.3     1  UNL1       -0.0756
     22 C         139.8679  142.8198  164.9136 C.3     1  UNL1        0.1340
     23 N         138.9670  142.5812  163.7383 N.ar    1  UNL1       -0.2884
     24 C         138.5401  143.6082  162.7318 C.ar    1  UNL1        0.1932
     25 N         137.6441  142.9354  161.7345 N.ar    1  UNL1       -0.1221
     26 N         137.5173  141.4926  162.1246 N.ar    1  UNL1       -0.1281
     27 C         138.3349  141.2736  163.3630 C.ar    1  UNL1        0.1700
     28 C         138.4926  139.9751  164.0973 C.ar    1  UNL1        0.0766
     29 C         139.1446  138.7341  163.5636 C.ar    1  UNL1        0.0469
     30 C         139.0810  137.6817  164.6306 C.ar    1  UNL1        0.1799
     31 O         138.3896  138.2723  165.8236 O.2     1  UNL1       -0.4472
     32 C         138.0260  139.6897  165.4940 C.ar    1  UNL1        0.1827
@<TRIPOS>BOND
     1    22    23    1
     2    23    24   ar
     3    24    21    1
     4    21    20    1
     5    20    19    1
     6    19    18    1
     7    18     1    1
     8     1     2    1
     9     2     3    1
    10     4     3    1
    11     4     5    1
    12     5     6    1
    13     6     8    1
    14     8     9   ar
    15     9    10   ar
    16    10    11   ar
    17    11    14    1
    18    14    15    1
    19    14    16    1
    20    14    17    1
    21    11    12   ar
    22    12    13   ar
    23     4     7    1
    24    24    25   ar
    25    25    26   ar
    26    26    27   ar
    27    27    28    1
    28    28    29   ar
    29    29    30   ar
    30    30    31   ar
    31    31    32   ar
    32    27    23   ar
    33    32    28   ar
    34     7     1    1
    35     6     4    1
    36    13     8   ar
@<TRIPOS>MOLECULE
*****
 32 36 0 0 0
SMALL
GASTEIGER

@<TRIPOS>ATOM
      1 N         143.6312  143.6108  164.4562 N.3     1  UNL1       -0.2726
      2 C         143.4160  144.9963  163.9234 C.3     1  UNL1        0.0721
      3 C         141.9378  145.2387  163.8459 C.3     1  UNL1        0.0190
      4 C         141.2393  144.0030  164.3308 C.3     1  UNL1        0.0201
      5 C         139.8462  144.5266  164.1438 C.3     1  UNL1        0.0061
      6 C         140.0614  143.1411  164.6766 C.3     1  UNL1        0.0237
      7 C         142.2859  142.9968  164.7081 C.3     1  UNL1        0.0724
      8 C         139.5055  141.8435  165.1839 C.ar    1  UNL1       -0.0225
      9 C         139.8945  141.3411  166.5427 C.ar    1  UNL1       -0.0043
     10 C         139.3387  140.0435  167.0500 C.ar    1  UNL1        0.0035
     11 C         138.3939  139.2484  166.1985 C.ar    1  UNL1        0.0714
     12 C         138.0049  139.7508  164.8397 C.ar    1  UNL1        0.0035
     13 C         138.5607  141.0484  164.3324 C.ar    1  UNL1       -0.0043
     14 C         137.8380  137.9508  166.7058 C.3     1  UNL1        0.4186
     15 F         137.2822  136.6532  167.2131 F       1  UNL1       -0.1659
     16 F         138.4242  137.2376  165.5236 F       1  UNL1       -0.1659
     17 F         137.2519  138.6641  167.8880 F       1  UNL1       -0.1659
     18 C         144.9586  142.9543  164.6953 C.3     1  UNL1        0.0730
     19 C         145.5422  142.0426  163.6570 C.3     1  UNL1        0.0294
     20 C         145.1475  140.5958  163.6219 C.3     1  UNL1        0.0666
     21 S         144.3946  140.0523  162.4439 S.3     1  UNL1       -0.0756
     22 C         144.1763  142.6024  160.4194 C.3     1  UNL1        0.1340
     23 N         143.0259  141.8869  161.0633 N.ar    1  UNL1       -0.2884
     24 C         143.1263  140.7147  161.9939 C.ar    1  UNL1        0.1932
     25 N         141.7356  140.3213  162.3955 N.ar    1  UNL1       -0.1221
     26 N         140.7758  141.2503  161.7132 N.ar    1  UNL1       -0.1281
     27 C         141.5732  142.2179  160.8898 C.ar    1  UNL1        0.1700
     28 C         141.0157  143.3226  160.0418 C.ar    1  UNL1        0.0766
     29 C         141.1444  144.7923  160.3124 C.ar    1  UNL1        0.0469
     30 C         140.4400  145.5295  159.2122 C.ar    1  UNL1        0.1799
     31 O         139.8760  144.5154  158.2618 O.2     1  UNL1       -0.4472
     32 C         140.2319  143.1514  158.7745 C.ar    1  UNL1        0.1827
@<TRIPOS>BOND
     1    22    23    1
     2    23    24   ar
     3    24    21    1
     4    21    20    1
     5    20    19    1
     6    19    18    1
     7    18     1    1
     8     1     2    1
     9     2     3    1
    10     4     3    1
    11     4     5    1
    12     5     6    1
    13     6     8    1
    14     8     9   ar
    15     9    10   ar
    16    10    11   ar
    17    11    14    1
    18    14    15    1
    19    14    16    1
    20    14    17    1
    21    11    12   ar
    22    12    13   ar
    23     4     7    1
    24    24    25   ar
    25    25    26   ar
    26    26    27   ar
    27    27    28    1
    28    28    29   ar
    29    29    30   ar
    30    30    31   ar
    31    31    32   ar
    32    27    23   ar
    33    32    28   ar
    34     7     1    1
    35     6     4    1
    36    13     8   ar
@<TRIPOS>MOLECULE
*****
 32 36 0 0 0
SMALL
GASTEIGER

@<TRIPOS>ATOM
      1 N         144.2820  141.5169  163.4586 N.3     1  UNL1       -0.2726
      2 C         144.8999  140.2380  162.9762 C.3     1  UNL1        0.0721
      3 C         144.5689  139.1610  163.9664 C.3     1  UNL1        0.0190
      4 C         143.7465  139.7742  165.0608 C.3     1  UNL1        0.0201
      5 C         143.5802  138.5139  165.8570 C.3     1  UNL1        0.0061
      6 C         142.9623  139.7928  166.3394 C.3     1  UNL1        0.0237
      7 C         143.5691  141.2303  164.7469 C.3     1  UNL1        0.0724
      8 C         142.1528  140.5419  167.3560 C.ar    1  UNL1       -0.0225
      9 C         140.7982  140.0369  167.7561 C.ar    1  UNL1       -0.0043
     10 C         139.9887  140.7859  168.7728 C.ar    1  UNL1        0.0035
     11 C         140.5339  142.0400  169.3893 C.ar    1  UNL1        0.0714
     12 C         141.8885  142.5450  168.9892 C.ar    1  UNL1        0.0035
     13 C         142.6979  141.7959  167.9726 C.ar    1  UNL1       -0.0043
     14 C         139.7244  142.7891  170.4060 C.3     1  UNL1        0.4186
     15 F         138.9149  143.5382  171.4227 F       1  UNL1       -0.1659
     16 F         138.7676  141.6371  170.4929 F       1  UNL1       -0.1659
     17 F         140.6812  143.9410  170.3191 F       1  UNL1       -0.1659
     18 C         144.3627  142.8486  162.7731 C.3     1  UNL1        0.0730
     19 C         143.9639  144.0950  163.5062 C.3     1  UNL1        0.0294
     20 C         143.0484  145.0884  162.8541 C.3     1  UNL1        0.0666
     21 S         141.5793  145.0651  163.1559 S.3     1  UNL1       -0.0756
     22 C         140.8668  142.3297  161.5251 C.3     1  UNL1        0.1340
     23 N         140.6245  142.5743  162.9851 N.ar    1  UNL1       -0.2884
     24 C         140.9521  143.8316  163.7347 C.ar    1  UNL1        0.1932
     25 N         140.5422  143.6389  165.1647 N.ar    1  UNL1       -0.1221
     26 N         139.9614  142.2624  165.2989 N.ar    1  UNL1       -0.1281
     27 C         140.0122  141.6044  163.9518 C.ar    1  UNL1        0.1700
     28 C         139.5347  140.2197  163.6283 C.ar    1  UNL1        0.0766
     29 C         140.2011  138.9394  164.0366 C.ar    1  UNL1        0.0469
     30 C         139.3852  137.8007  163.5004 C.ar    1  UNL1        0.1799
     31 O         138.2145  138.3773  162.7608 O.2     1  UNL1       -0.4472
     32 C         138.3068  139.8723  162.8398 C.ar    1  UNL1        0.1827
@<TRIPOS>BOND
     1    22    23    1
     2    23    24   ar
     3    24    21    1
     4    21    20    1
     5    20    19    1
     6    19    18    1
     7    18     1    1
     8     1     2    1
     9     2     3    1
    10     4     3    1
    11     4     5    1
    12     5     6    1
    13     6     8    1
    14     8     9   ar
    15     9    10   ar
    16    10    11   ar
    17    11    14    1
    18    14    15    1
    19    14    16    1
    20    14    17    1
    21    11    12   ar
    22    12    13   ar
    23     4     7    1
    24    24    25   ar
    25    25    26   ar
    26    26    27   ar
    27    27    28    1
    28    28    29   ar
    29    29    30   ar
    30    30    31   ar
    31    31    32   ar
    32    27    23   ar
    33    32    28   ar
    34     7     1    1
    35     6     4    1
    36    13     8   ar
@<TRIPOS>MOLECULE
*****
 32 36 0 0 0
SMALL
GASTEIGER

@<TRIPOS>ATOM
      1 N         138.9818  140.0135  162.4741 N.3     1  UNL1       -0.2726
      2 C         139.2048  138.8041  161.6153 C.3     1  UNL1        0.0721
      3 C         140.0191  137.8206  162.4024 C.3     1  UNL1        0.0190
      4 C         140.2995  138.4221  163.7476 C.3     1  UNL1        0.0201
      5 C         141.0897  137.2621  164.2765 C.3     1  UNL1        0.0061
      6 C         140.8668  138.4715  165.1353 C.3     1  UNL1        0.0237
      7 C         139.6584  139.7775  163.7919 C.3     1  UNL1        0.0724
      8 C         141.0656  139.1983  166.4323 C.ar    1  UNL1       -0.0225
      9 C         139.8846  139.7651  167.1631 C.ar    1  UNL1       -0.0043
     10 C         140.0834  140.4919  168.4601 C.ar    1  UNL1        0.0035
     11 C         141.4632  140.6519  169.0263 C.ar    1  UNL1        0.0714
     12 C         142.6442  140.0851  168.2955 C.ar    1  UNL1        0.0035
     13 C         142.4454  139.3583  166.9985 C.ar    1  UNL1       -0.0043
     14 C         141.6620  141.3787  170.3233 C.3     1  UNL1        0.4186
     15 F         141.8608  142.1055  171.6204 F       1  UNL1       -0.1659
     16 F         140.3158  142.0220  170.1691 F       1  UNL1       -0.1659
     17 F         143.0082  140.7353  170.4775 F       1  UNL1       -0.1659
     18 C         138.2167  141.2432  162.0837 C.3     1  UNL1        0.0730
     19 C         137.6588  142.1472  163.1428 C.3     1  UNL1        0.0294
     20 C         137.7056  143.6353  162.9596 C.3     1  UNL1        0.0666
     21 S         138.7923  144.4374  163.6120 S.3     1  UNL1       -0.0756
     22 C         141.4282  143.2969  162.0626 C.3     1  UNL1        0.1340
     23 N         141.1694  143.2174  163.5380 N.ar    1  UNL1       -0.2884
     24 C         139.9579  143.7416  164.2502 C.ar    1  UNL1        0.1932
     25 N         140.1165  143.4480  165.7126 N.ar    1  UNL1       -0.1221
     26 N         141.4261  142.7422  165.9043 N.ar    1  UNL1       -0.1281
     27 C         142.0769  142.5997  164.5603 C.ar    1  UNL1        0.1700
     28 C         143.4025  141.9530  164.2867 C.ar    1  UNL1        0.0766
     29 C         143.6157  140.5474  163.8082 C.ar    1  UNL1        0.0469
     30 C         145.0924  140.3241  163.6693 C.ar    1  UNL1        0.1799
     31 O         145.7919  141.5916  164.0620 O.2     1  UNL1       -0.4472
     32 C         144.7474  142.5983  164.4435 C.ar    1  UNL1        0.1827
@<TRIPOS>BOND
     1    22    23    1
     2    23    24   ar
     3    24    21    1
     4    21    20    1
     5    20    19    1
     6    19    18    1
     7    18     1    1
     8     1     2    1
     9     2     3    1
    10     4     3    1
    11     4     5    1
    12     5     6    1
    13     6     8    1
    14     8     9   ar
    15     9    10   ar
    16    10    11   ar
    17    11    14    1
    18    14    15    1
    19    14    16    1
    20    14    17    1
    21    11    12   ar
    22    12    13   ar
    23     4     7    1
    24    24    25   ar
    25    25    26   ar
    26    26    27   ar
    27    27    28    1
    28    28    29   ar
    29    29    30   ar
    30    30    31   ar
    31    31    32   ar
    32    27    23   ar
    33    32    28   ar
    34     7     1    1
    35     6     4    1
    36    13     8   ar
@<TRIPOS>MOLECULE
*****
 32 36 0 0 0
SMALL
GASTEIGER

@<TRIPOS>ATOM
      1 N         138.1454  141.8459  162.6546 N.3     1  UNL1       -0.2726
      2 C         137.7414  143.2521  162.3238 C.3     1  UNL1        0.0721
      3 C         138.2160  144.1438  163.4326 C.3     1  UNL1        0.0190
      4 C         138.9133  143.2887  164.4488 C.3     1  UNL1        0.0201
      5 C         139.2572  144.4081  165.3862 C.3     1  UNL1        0.0061
      6 C         139.6612  143.0019  165.7171 C.3     1  UNL1        0.0237
      7 C         138.8697  141.8685  163.9680 C.3     1  UNL1        0.0724
      8 C         140.3262  142.0245  166.6404 C.ar    1  UNL1       -0.0225
      9 C         139.5838  140.8064  167.1041 C.ar    1  UNL1       -0.0043
     10 C         140.2488  139.8290  168.0273 C.ar    1  UNL1        0.0035
     11 C         141.6562  140.0697  168.4868 C.ar    1  UNL1        0.0714
     12 C         142.3986  141.2878  168.0231 C.ar    1  UNL1        0.0035
     13 C         141.7336  142.2652  167.0999 C.ar    1  UNL1       -0.0043
     14 C         142.3212  139.0923  169.4101 C.3     1  UNL1        0.4186
     15 F         142.9863  138.1148  170.3333 F       1  UNL1       -0.1659
     16 F         141.5308  139.6413  170.5606 F       1  UNL1       -0.1659
     17 F         143.1116  138.5433  168.2595 F       1  UNL1       -0.1659
     18 C         137.8730  140.6305  161.8189 C.3     1  UNL1        0.0730
     19 C         138.2456  139.2702  162.3296 C.3     1  UNL1        0.0294
     20 C         139.0097  138.3231  161.4525 C.3     1  UNL1        0.0666
     21 S         140.5079  138.2854  161.5157 S.3     1  UNL1       -0.0756
     22 C         141.4516  141.2429  160.5096 C.3     1  UNL1        0.1340
     23 N         141.6835  140.6595  161.8719 N.ar    1  UNL1       -0.2884
     24 C         141.2497  139.3001  162.3343 C.ar    1  UNL1        0.1932
     25 N         141.6879  139.1334  163.7592 N.ar    1  UNL1       -0.1221
     26 N         142.3926  140.3898  164.1773 N.ar    1  UNL1       -0.1281
     27 C         142.3899  141.3330  163.0109 C.ar    1  UNL1        0.1700
     28 C         142.9884  142.7083  162.9877 C.ar    1  UNL1        0.0766
     29 C         142.5894  143.8584  163.8640 C.ar    1  UNL1        0.0469
     30 C         143.4454  145.0357  163.5020 C.ar    1  UNL1        0.1799
     31 O         144.3735  144.6132  162.4019 O.2     1  UNL1       -0.4472
     32 C         144.0911  143.1747  162.0840 C.ar    1  UNL1        0.1827
@<TRIPOS>BOND
     1    22    23    1
     2    23    24   ar
     3    24    21    1
     4    21    20    1
     5    20    19    1
     6    19    18    1
     7    18     1    1
     8     1     2    1
     9     2     3    1
    10     4     3    1
    11     4     5    1
    12     5     6    1
    13     6     8    1
    14     8     9   ar
    15     9    10   ar
    16    10    11   ar
    17    11    14    1
    18    14    15    1
    19    14    16    1
    20    14    17    1
    21    11    12   ar
    22    12    13   ar
    23     4     7    1
    24    24    25   ar
    25    25    26   ar
    26    26    27   ar
    27    27    28    1
    28    28    29   ar
    29    29    30   ar
    30    30    31   ar
    31    31    32   ar
    32    27    23   ar
    33    32    28   ar
    34     7     1    1
    35     6     4    1
    36    13     8   ar
