@<TRIPOS>MOLECULE
*****
 29 32 0 0 0
SMALL
GASTEIGER

@<TRIPOS>ATOM
      1 C         141.3133  142.7817  168.7926 C.2     1  UNL1        0.1391
      2 N         140.9636  142.4873  167.3640 N.2     1  UNL1       -0.2192
      3 C         142.2242  142.1013  166.6484 C.3     1  UNL1        0.2959
      4 N         143.3528  142.1571  167.6348 N.2     1  UNL1       -0.0404
      5 C         142.7898  142.5777  168.9601 C.2     1  UNL1        0.3289
      6 N         143.5670  142.7618  170.2297 N.pl3   1  UNL1       -0.2454
      7 H         144.5385  142.6028  170.2397 H       1  UNL1        0.2885
      8 H         143.1055  143.0417  171.0532 H       1  UNL1        0.2885
      9 C         143.2956  141.6854  165.6844 C.ar    1  UNL1        0.0479
     10 C         143.4345  140.2439  165.2937 C.ar    1  UNL1        0.0021
     11 C         144.5059  139.8281  164.3298 C.ar    1  UNL1       -0.0001
     12 C         145.4383  140.8538  163.7566 C.ar    1  UNL1       -0.0000
     13 C         145.2993  142.2953  164.1473 C.ar    1  UNL1       -0.0001
     14 C         144.2280  142.7111  165.1112 C.ar    1  UNL1        0.0021
     15 C         141.3195  141.9585  165.4605 C.ar    1  UNL1        0.0479
     16 C         140.2434  140.9136  165.4586 C.ar    1  UNL1        0.0021
     17 C         139.3387  140.7707  164.2707 C.ar    1  UNL1       -0.0001
     18 C         139.5101  141.6729  163.0846 C.ar    1  UNL1        0.0001
     19 C         140.5862  142.7178  163.0865 C.ar    1  UNL1        0.0029
     20 C         141.4910  142.8607  164.2744 C.ar    1  UNL1        0.0022
     21 C         140.7577  143.6199  161.9005 C.ar    1  UNL1        0.0384
     22 C         142.0144  143.5549  161.0842 C.ar    1  UNL1        0.1022
     23 N         142.1859  144.4571  159.8981 N.ar    1  UNL1       -0.2224
     24 C         141.1007  145.4243  159.5283 C.ar    1  UNL1        0.1989
     25 N         139.8439  145.4893  160.3446 N.ar    1  UNL1       -0.2224
     26 C         139.6724  144.5872  161.5306 C.ar    1  UNL1        0.1022
     27 C         140.2122  144.6581  170.2130 C.3     1  UNL1        0.0066
     28 C         140.3546  143.2057  169.8655 C.3     1  UNL1        0.0475
     29 C         139.5383  142.1775  170.5911 C.3     1  UNL1        0.0066
@<TRIPOS>BOND
     1    27    28    1
     2    28    29    1
     3    28     1    1
     4     1     2    2
     5     2     3    1
     6     3     9    1
     7     9    10   ar
     8    10    11   ar
     9    11    12   ar
    10    12    13   ar
    11    13    14   ar
    12     3    15    1
    13    15    16   ar
    14    16    17   ar
    15    17    18   ar
    16    18    19   ar
    17    19    21    1
    18    21    22   ar
    19    22    23   ar
    20    23    24   ar
    21    24    25   ar
    22    25    26   ar
    23    19    20   ar
    24     3     4    1
    25     4     5    2
    26     5     6    1
    27     5     1    1
    28    14     9   ar
    29    20    15   ar
    30    26    21   ar
    31     6     7    1
    32     6     8    1
@<TRIPOS>MOLECULE
*****
 29 32 0 0 0
SMALL
GASTEIGER

@<TRIPOS>ATOM
      1 C         140.5766  141.5385  168.7393 C.2     1  UNL1        0.1391
      2 N         141.2420  141.6194  167.3975 N.2     1  UNL1       -0.2192
      3 C         140.6826  140.5262  166.5361 C.3     1  UNL1        0.2959
      4 N         139.6716  139.7696  167.3456 N.2     1  UNL1       -0.0404
      5 C         139.6060  140.3953  168.7073 C.2     1  UNL1        0.3289
      6 N         138.7246  139.9550  169.8384 N.pl3   1  UNL1       -0.2454
      7 H         138.1175  139.1892  169.7200 H       1  UNL1        0.2885
      8 H         138.7533  140.4320  170.6992 H       1  UNL1        0.2885
      9 C         140.3188  139.5484  165.4583 C.ar    1  UNL1        0.0479
     10 C         139.0542  139.7337  164.6733 C.ar    1  UNL1        0.0021
     11 C         138.6904  138.7559  163.5955 C.ar    1  UNL1       -0.0001
     12 C         139.5912  137.5928  163.3029 C.ar    1  UNL1       -0.0000
     13 C         140.8559  137.4075  164.0879 C.ar    1  UNL1       -0.0001
     14 C         141.2196  138.3853  165.1656 C.ar    1  UNL1        0.0021
     15 C         141.6176  141.0783  165.5012 C.ar    1  UNL1        0.0479
     16 C         143.0777  140.7381  165.5518 C.ar    1  UNL1        0.0021
     17 C         144.0127  141.2903  164.5170 C.ar    1  UNL1       -0.0001
     18 C         143.4877  142.1825  163.4315 C.ar    1  UNL1        0.0001
     19 C         142.0277  142.5227  163.3809 C.ar    1  UNL1        0.0029
     20 C         141.0926  141.9706  164.4158 C.ar    1  UNL1        0.0022
     21 C         141.5027  143.4150  162.2955 C.ar    1  UNL1        0.0384
     22 C         142.4245  143.9115  161.2214 C.ar    1  UNL1        0.1022
     23 N         141.8994  144.8038  160.1359 N.ar    1  UNL1       -0.2224
     24 C         140.4527  145.1996  160.1246 C.ar    1  UNL1        0.1989
     25 N         139.5309  144.7030  161.1987 N.ar    1  UNL1       -0.2224
     26 C         140.0558  143.8108  162.2842 C.ar    1  UNL1        0.1022
     27 C         140.4052  143.8781  169.8562 C.3     1  UNL1        0.0066
     28 C         140.8361  142.4422  169.9081 C.3     1  UNL1        0.0475
     29 C         141.5266  141.9100  171.1288 C.3     1  UNL1        0.0066
@<TRIPOS>BOND
     1    27    28    1
     2    28    29    1
     3    28     1    1
     4     1     2    2
     5     2     3    1
     6     3     9    1
     7     9    10   ar
     8    10    11   ar
     9    11    12   ar
    10    12    13   ar
    11    13    14   ar
    12     3    15    1
    13    15    16   ar
    14    16    17   ar
    15    17    18   ar
    16    18    19   ar
    17    19    21    1
    18    21    22   ar
    19    22    23   ar
    20    23    24   ar
    21    24    25   ar
    22    25    26   ar
    23    19    20   ar
    24     3     4    1
    25     4     5    2
    26     5     6    1
    27     5     1    1
    28    14     9   ar
    29    20    15   ar
    30    26    21   ar
    31     6     7    1
    32     6     8    1
@<TRIPOS>MOLECULE
*****
 29 32 0 0 0
SMALL
GASTEIGER

@<TRIPOS>ATOM
      1 C         141.3281  142.6744  168.6899 C.2     1  UNL1        0.1391
      2 N         141.0574  142.6960  167.2147 N.2     1  UNL1       -0.2192
      3 C         142.2914  142.2157  166.5100 C.3     1  UNL1        0.2959
      4 N         143.3247  141.8973  167.5496 N.2     1  UNL1       -0.0404
      5 C         142.7294  142.1808  168.8969 C.2     1  UNL1        0.3289
      6 N         143.4149  142.0021  170.2191 N.pl3   1  UNL1       -0.2454
      7 H         144.3413  141.6704  170.2523 H       1  UNL1        0.2885
      8 H         142.9385  142.2164  171.0535 H       1  UNL1        0.2885
      9 C         143.3559  141.7831  165.5456 C.ar    1  UNL1        0.0479
     10 C         144.2609  142.8030  164.9206 C.ar    1  UNL1        0.0021
     11 C         145.3253  142.3703  163.9563 C.ar    1  UNL1       -0.0001
     12 C         145.4847  140.9179  163.6171 C.ar    1  UNL1       -0.0000
     13 C         144.5796  139.8981  164.2422 C.ar    1  UNL1       -0.0001
     14 C         143.5152  140.3307  165.2065 C.ar    1  UNL1        0.0021
     15 C         141.4806  142.4437  165.2687 C.ar    1  UNL1        0.0479
     16 C         141.4309  143.8071  164.6453 C.ar    1  UNL1        0.0021
     17 C         140.6201  144.0351  163.4040 C.ar    1  UNL1       -0.0001
     18 C         139.8591  142.8997  162.7862 C.ar    1  UNL1        0.0001
     19 C         139.9088  141.5363  163.4096 C.ar    1  UNL1        0.0029
     20 C         140.7196  141.3083  164.6509 C.ar    1  UNL1        0.0022
     21 C         139.1478  140.4010  162.7919 C.ar    1  UNL1        0.0384
     22 C         139.3184  139.0078  163.3210 C.ar    1  UNL1        0.1022
     23 N         138.5574  137.8724  162.7033 N.ar    1  UNL1       -0.2224
     24 C         137.6257  138.1301  161.5563 C.ar    1  UNL1        0.1989
     25 N         137.4551  139.5232  161.0271 N.ar    1  UNL1       -0.2224
     26 C         138.2160  140.6587  161.6448 C.ar    1  UNL1        0.1022
     27 C         140.2381  144.5182  170.1604 C.3     1  UNL1        0.0066
     28 C         140.3664  143.0759  169.7687 C.3     1  UNL1        0.0475
     29 C         139.5330  142.0351  170.4560 C.3     1  UNL1        0.0066
@<TRIPOS>BOND
     1    27    28    1
     2    28    29    1
     3    28     1    1
     4     1     2    2
     5     2     3    1
     6     3     9    1
     7     9    10   ar
     8    10    11   ar
     9    11    12   ar
    10    12    13   ar
    11    13    14   ar
    12     3    15    1
    13    15    16   ar
    14    16    17   ar
    15    17    18   ar
    16    18    19   ar
    17    19    21    1
    18    21    22   ar
    19    22    23   ar
    20    23    24   ar
    21    24    25   ar
    22    25    26   ar
    23    19    20   ar
    24     3     4    1
    25     4     5    2
    26     5     6    1
    27     5     1    1
    28    14     9   ar
    29    20    15   ar
    30    26    21   ar
    31     6     7    1
    32     6     8    1
@<TRIPOS>MOLECULE
*****
 29 32 0 0 0
SMALL
GASTEIGER

@<TRIPOS>ATOM
      1 C         140.4772  142.1463  168.7405 C.2     1  UNL1        0.1391
      2 N         140.4792  142.6795  167.3385 N.2     1  UNL1       -0.2192
      3 C         139.9337  141.6127  166.4361 C.3     1  UNL1        0.2959
      4 N         139.5946  140.4202  167.2803 N.2     1  UNL1       -0.0404
      5 C         139.9305  140.7499  168.7046 C.2     1  UNL1        0.3289
      6 N         139.7511  139.8427  169.8855 N.pl3   1  UNL1       -0.2454
      7 H         139.3822  138.9386  169.7602 H       1  UNL1        0.2885
      8 H         140.0023  140.1513  170.7860 H       1  UNL1        0.2885
      9 C         139.4375  140.7578  165.3078 C.ar    1  UNL1        0.0479
     10 C         140.1376  139.4735  164.9758 C.ar    1  UNL1        0.0021
     11 C         139.6413  138.6187  163.8475 C.ar    1  UNL1       -0.0001
     12 C         138.4449  139.0483  163.0512 C.ar    1  UNL1       -0.0000
     13 C         137.7448  140.3326  163.3832 C.ar    1  UNL1       -0.0001
     14 C         138.2411  141.1874  164.5114 C.ar    1  UNL1        0.0021
     15 C         140.1691  142.6265  165.3559 C.ar    1  UNL1        0.0479
     16 C         139.3722  143.8971  165.3333 C.ar    1  UNL1        0.0021
     17 C         139.6076  144.9109  164.2531 C.ar    1  UNL1       -0.0001
     18 C         140.6399  144.6542  163.1955 C.ar    1  UNL1        0.0001
     19 C         141.4368  143.3836  163.2181 C.ar    1  UNL1        0.0029
     20 C         141.2015  142.3697  164.2983 C.ar    1  UNL1        0.0022
     21 C         142.4691  143.1269  162.1607 C.ar    1  UNL1        0.0384
     22 C         143.7213  142.3747  162.5018 C.ar    1  UNL1        0.1022
     23 N         144.7536  142.1180  161.4442 N.ar    1  UNL1       -0.2224
     24 C         144.5338  142.6133  160.0456 C.ar    1  UNL1        0.1989
     25 N         143.2816  143.3655  159.7045 N.ar    1  UNL1       -0.2224
     26 C         142.2493  143.6223  160.7619 C.ar    1  UNL1        0.1022
     27 C         140.4217  144.2579  170.2532 C.3     1  UNL1        0.0066
     28 C         140.9405  142.8805  169.9637 C.3     1  UNL1        0.0475
     29 C         141.9226  142.2374  170.8974 C.3     1  UNL1        0.0066
@<TRIPOS>BOND
     1    27    28    1
     2    28    29    1
     3    28     1    1
     4     1     2    2
     5     2     3    1
     6     3     9    1
     7     9    10   ar
     8    10    11   ar
     9    11    12   ar
    10    12    13   ar
    11    13    14   ar
    12     3    15    1
    13    15    16   ar
    14    16    17   ar
    15    17    18   ar
    16    18    19   ar
    17    19    21    1
    18    21    22   ar
    19    22    23   ar
    20    23    24   ar
    21    24    25   ar
    22    25    26   ar
    23    19    20   ar
    24     3     4    1
    25     4     5    2
    26     5     6    1
    27     5     1    1
    28    14     9   ar
    29    20    15   ar
    30    26    21   ar
    31     6     7    1
    32     6     8    1
@<TRIPOS>MOLECULE
*****
 29 32 0 0 0
SMALL
GASTEIGER

@<TRIPOS>ATOM
      1 C         141.7860  139.9152  162.0963 C.2     1  UNL1        0.1391
      2 N         140.9951  139.8312  163.3680 N.2     1  UNL1       -0.2192
      3 C         140.3552  141.1670  163.6050 C.3     1  UNL1        0.2959
      4 N         140.7506  142.0766  162.4797 N.2     1  UNL1       -0.0404
      5 C         141.6349  141.3029  161.5472 C.2     1  UNL1        0.3289
      6 N         142.2586  141.8252  160.2870 N.pl3   1  UNL1       -0.2454
      7 H         142.0996  142.7559  160.0081 H       1  UNL1        0.2885
      8 H         142.8270  141.2374  159.7387 H       1  UNL1        0.2885
      9 C         139.5995  142.3650  164.0988 C.ar    1  UNL1        0.0479
     10 C         140.3240  143.4654  164.8160 C.ar    1  UNL1        0.0021
     11 C         139.5683  144.6633  165.3098 C.ar    1  UNL1       -0.0001
     12 C         138.0883  144.7609  165.0864 C.ar    1  UNL1       -0.0000
     13 C         137.3638  143.6606  164.3692 C.ar    1  UNL1       -0.0001
     14 C         138.1195  142.4626  163.8754 C.ar    1  UNL1        0.0021
     15 C         139.8018  140.5079  164.8335 C.ar    1  UNL1        0.0479
     16 C         138.6171  139.5943  164.7254 C.ar    1  UNL1        0.0021
     17 C         138.0636  138.9351  165.9540 C.ar    1  UNL1       -0.0001
     18 C         138.6949  139.1897  167.2906 C.ar    1  UNL1        0.0001
     19 C         139.8796  140.1034  167.3988 C.ar    1  UNL1        0.0029
     20 C         140.4330  140.7625  166.1702 C.ar    1  UNL1        0.0022
     21 C         140.5108  140.3580  168.7354 C.ar    1  UNL1        0.0384
     22 C         139.6589  140.7590  169.9030 C.ar    1  UNL1        0.1022
     23 N         140.2901  141.0136  171.2397 N.ar    1  UNL1       -0.2224
     24 C         141.7733  140.8672  171.4087 C.ar    1  UNL1        0.1989
     25 N         142.6253  140.4661  170.2411 N.ar    1  UNL1       -0.2224
     26 C         141.9941  140.2115  168.9045 C.ar    1  UNL1        0.1022
     27 C         142.0831  138.1084  160.2530 C.3     1  UNL1        0.0066
     28 C         142.5873  138.8062  161.4815 C.3     1  UNL1        0.0475
     29 C         143.8928  138.3950  162.0951 C.3     1  UNL1        0.0066
@<TRIPOS>BOND
     1    27    28    1
     2    28    29    1
     3    28     1    1
     4     1     2    2
     5     2     3    1
     6     3     9    1
     7     9    10   ar
     8    10    11   ar
     9    11    12   ar
    10    12    13   ar
    11    13    14   ar
    12     3    15    1
    13    15    16   ar
    14    16    17   ar
    15    17    18   ar
    16    18    19   ar
    17    19    21    1
    18    21    22   ar
    19    22    23   ar
    20    23    24   ar
    21    24    25   ar
    22    25    26   ar
    23    19    20   ar
    24     3     4    1
    25     4     5    2
    26     5     6    1
    27     5     1    1
    28    14     9   ar
    29    20    15   ar
    30    26    21   ar
    31     6     7    1
    32     6     8    1
@<TRIPOS>MOLECULE
*****
 29 32 0 0 0
SMALL
GASTEIGER

@<TRIPOS>ATOM
      1 C         142.1428  142.0239  168.4429 C.2     1  UNL1        0.1391
      2 N         142.4438  142.1338  166.9776 N.2     1  UNL1       -0.2192
      3 C         141.1805  142.5318  166.2735 C.3     1  UNL1        0.2959
      4 N         140.0988  142.6679  167.3037 N.2     1  UNL1       -0.0404
      5 C         140.6935  142.3540  168.6445 C.2     1  UNL1        0.3289
      6 N         139.9666  142.3677  169.9565 N.pl3   1  UNL1       -0.2454
      7 H         139.0100  142.5984  169.9869 H       1  UNL1        0.2885
      8 H         140.4461  142.1460  170.7873 H       1  UNL1        0.2885
      9 C         140.0960  142.9183  165.3119 C.ar    1  UNL1        0.0479
     10 C         140.0735  144.2969  164.7213 C.ar    1  UNL1        0.0021
     11 C         138.9890  144.6833  163.7599 C.ar    1  UNL1       -0.0001
     12 C         137.9269  143.6910  163.3890 C.ar    1  UNL1       -0.0000
     13 C         137.9494  142.3124  163.9796 C.ar    1  UNL1       -0.0001
     14 C         139.0339  141.9260  164.9411 C.ar    1  UNL1        0.0021
     15 C         142.0355  142.4766  165.0422 C.ar    1  UNL1        0.0479
     16 C         142.9102  143.6412  164.6837 C.ar    1  UNL1        0.0021
     17 C         143.7652  143.5860  163.4524 C.ar    1  UNL1       -0.0001
     18 C         143.7455  142.3661  162.5797 C.ar    1  UNL1        0.0001
     19 C         142.8708  141.2015  162.9382 C.ar    1  UNL1        0.0029
     20 C         142.0157  141.2567  164.1695 C.ar    1  UNL1        0.0022
     21 C         142.8510  139.9818  162.0656 C.ar    1  UNL1        0.0384
     22 C         141.8716  138.8793  162.3397 C.ar    1  UNL1        0.1022
     23 N         141.8518  137.6594  161.4670 N.ar    1  UNL1       -0.2224
     24 C         142.8116  137.5420  160.3202 C.ar    1  UNL1        0.1989
     25 N         143.7910  138.6445  160.0461 N.ar    1  UNL1       -0.2224
     26 C         143.8109  139.8643  160.9187 C.ar    1  UNL1        0.1022
     27 C         144.2324  142.5882  169.8801 C.3     1  UNL1        0.0066
     28 C         143.1196  141.6497  169.5180 C.3     1  UNL1        0.0475
     29 C         142.9837  140.3369  170.2309 C.3     1  UNL1        0.0066
@<TRIPOS>BOND
     1    27    28    1
     2    28    29    1
     3    28     1    1
     4     1     2    2
     5     2     3    1
     6     3     9    1
     7     9    10   ar
     8    10    11   ar
     9    11    12   ar
    10    12    13   ar
    11    13    14   ar
    12     3    15    1
    13    15    16   ar
    14    16    17   ar
    15    17    18   ar
    16    18    19   ar
    17    19    21    1
    18    21    22   ar
    19    22    23   ar
    20    23    24   ar
    21    24    25   ar
    22    25    26   ar
    23    19    20   ar
    24     3     4    1
    25     4     5    2
    26     5     6    1
    27     5     1    1
    28    14     9   ar
    29    20    15   ar
    30    26    21   ar
    31     6     7    1
    32     6     8    1
@<TRIPOS>MOLECULE
*****
 29 32 0 0 0
SMALL
GASTEIGER

@<TRIPOS>ATOM
      1 C         140.5134  141.5894  168.9103 C.2     1  UNL1        0.1391
      2 N         140.2809  140.9745  167.5621 N.2     1  UNL1       -0.2192
      3 C         139.9597  142.0782  166.5985 C.3     1  UNL1        0.2959
      4 N         139.9936  143.3752  167.3512 N.2     1  UNL1       -0.0404
      5 C         140.3358  143.0731  168.7801 C.2     1  UNL1        0.3289
      6 N         140.4759  144.0782  169.8846 N.pl3   1  UNL1       -0.2454
      7 H         140.3393  145.0354  169.6994 H       1  UNL1        0.2885
      8 H         140.7045  143.7807  170.7948 H       1  UNL1        0.2885
      9 C         139.6163  142.9489  165.4262 C.ar    1  UNL1        0.0479
     10 C         138.2339  142.9134  164.8450 C.ar    1  UNL1        0.0021
     11 C         137.8907  143.7840  163.6728 C.ar    1  UNL1       -0.0001
     12 C         138.9298  144.6901  163.0817 C.ar    1  UNL1       -0.0000
     13 C         140.3121  144.7255  163.6629 C.ar    1  UNL1       -0.0001
     14 C         140.6554  143.8549  164.8351 C.ar    1  UNL1        0.0021
     15 C         139.8539  140.9633  165.6007 C.ar    1  UNL1        0.0479
     16 C         138.6559  140.0607  165.6088 C.ar    1  UNL1        0.0021
     17 C         138.5501  138.9456  164.6109 C.ar    1  UNL1       -0.0001
     18 C         139.6423  138.7332  163.6050 C.ar    1  UNL1        0.0001
     19 C         140.8403  139.6358  163.5969 C.ar    1  UNL1        0.0029
     20 C         140.9461  140.7509  164.5947 C.ar    1  UNL1        0.0022
     21 C         141.9325  139.4235  162.5910 C.ar    1  UNL1        0.0384
     22 C         142.1825  140.4509  161.5271 C.ar    1  UNL1        0.1022
     23 N         143.2747  140.2386  160.5211 N.ar    1  UNL1       -0.2224
     24 C         144.1170  138.9988  160.5791 C.ar    1  UNL1        0.1989
     25 N         143.8671  137.9713  161.6429 N.ar    1  UNL1       -0.2224
     26 C         142.7749  138.1836  162.6489 C.ar    1  UNL1        0.1022
     27 C         139.8574  139.9356  170.8038 C.3     1  UNL1        0.0066
     28 C         140.8621  140.8503  170.1681 C.3     1  UNL1        0.0475
     29 C         142.2157  141.0257  170.7903 C.3     1  UNL1        0.0066
@<TRIPOS>BOND
     1    27    28    1
     2    28    29    1
     3    28     1    1
     4     1     2    2
     5     2     3    1
     6     3     9    1
     7     9    10   ar
     8    10    11   ar
     9    11    12   ar
    10    12    13   ar
    11    13    14   ar
    12     3    15    1
    13    15    16   ar
    14    16    17   ar
    15    17    18   ar
    16    18    19   ar
    17    19    21    1
    18    21    22   ar
    19    22    23   ar
    20    23    24   ar
    21    24    25   ar
    22    25    26   ar
    23    19    20   ar
    24     3     4    1
    25     4     5    2
    26     5     6    1
    27     5     1    1
    28    14     9   ar
    29    20    15   ar
    30    26    21   ar
    31     6     7    1
    32     6     8    1
@<TRIPOS>MOLECULE
*****
 29 32 0 0 0
SMALL
GASTEIGER

@<TRIPOS>ATOM
      1 C         141.1418  140.3395  168.9009 C.2     1  UNL1        0.1391
      2 N         141.8258  140.1984  167.5735 N.2     1  UNL1       -0.2192
      3 C         140.7946  139.7962  166.5611 C.3     1  UNL1        0.2959
      4 N         139.4733  139.6888  167.2629 N.2     1  UNL1       -0.0404
      5 C         139.6878  140.0245  168.7090 C.2     1  UNL1        0.3289
      6 N         138.6336  140.0422  169.7758 N.pl3   1  UNL1       -0.2454
      7 H         137.7015  139.8194  169.5505 H       1  UNL1        0.2885
      8 H         138.8737  140.2766  170.7014 H       1  UNL1        0.2885
      9 C         140.0052  139.3992  165.3489 C.ar    1  UNL1        0.0479
     10 C         140.2029  138.0447  164.7357 C.ar    1  UNL1        0.0021
     11 C         139.4135  137.6477  163.5236 C.ar    1  UNL1       -0.0001
     12 C         138.4263  138.6052  162.9248 C.ar    1  UNL1       -0.0000
     13 C         138.2285  139.9597  163.5381 C.ar    1  UNL1       -0.0001
     14 C         139.0180  140.3567  164.7501 C.ar    1  UNL1        0.0021
     15 C         141.9509  139.8207  165.6059 C.ar    1  UNL1        0.0479
     16 C         143.1620  138.9768  165.8726 C.ar    1  UNL1        0.0021
     17 C         144.3183  139.0012  164.9174 C.ar    1  UNL1       -0.0001
     18 C         144.2635  139.8696  163.6955 C.ar    1  UNL1        0.0001
     19 C         143.0525  140.7134  163.4288 C.ar    1  UNL1        0.0029
     20 C         141.8961  140.6890  164.3840 C.ar    1  UNL1        0.0022
     21 C         142.9977  141.5817  162.2069 C.ar    1  UNL1        0.0384
     22 C         143.0922  143.0727  162.3415 C.ar    1  UNL1        0.1022
     23 N         143.0374  143.9410  161.1196 N.ar    1  UNL1       -0.2224
     24 C         142.8881  143.3184  159.7632 C.ar    1  UNL1        0.1989
     25 N         142.7936  141.8275  159.6286 N.ar    1  UNL1       -0.2224
     26 C         142.8484  140.9591  160.8503 C.ar    1  UNL1        0.1022
     27 C         142.9517  139.9274  170.7187 C.3     1  UNL1        0.0066
     28 C         141.7967  140.7274  170.1934 C.3     1  UNL1        0.0475
     29 C         141.2966  141.9154  170.9606 C.3     1  UNL1        0.0066
@<TRIPOS>BOND
     1    27    28    1
     2    28    29    1
     3    28     1    1
     4     1     2    2
     5     2     3    1
     6     3     9    1
     7     9    10   ar
     8    10    11   ar
     9    11    12   ar
    10    12    13   ar
    11    13    14   ar
    12     3    15    1
    13    15    16   ar
    14    16    17   ar
    15    17    18   ar
    16    18    19   ar
    17    19    21    1
    18    21    22   ar
    19    22    23   ar
    20    23    24   ar
    21    24    25   ar
    22    25    26   ar
    23    19    20   ar
    24     3     4    1
    25     4     5    2
    26     5     6    1
    27     5     1    1
    28    14     9   ar
    29    20    15   ar
    30    26    21   ar
    31     6     7    1
    32     6     8    1
@<TRIPOS>MOLECULE
*****
 29 32 0 0 0
SMALL
GASTEIGER

@<TRIPOS>ATOM
      1 C         142.4669  141.0509  168.8555 C.2     1  UNL1        0.1391
      2 N         141.8298  140.8563  167.5116 N.2     1  UNL1       -0.2192
      3 C         142.3904  141.8887  166.5790 C.3     1  UNL1        0.2959
      4 N         143.3741  142.7214  167.3465 N.2     1  UNL1       -0.0404
      5 C         143.4214  142.2035  168.7535 C.2     1  UNL1        0.3289
      6 N         144.2735  142.7436  169.8636 N.pl3   1  UNL1       -0.2454
      7 H         144.8718  143.5076  169.6978 H       1  UNL1        0.2885
      8 H         144.2344  142.3339  170.7580 H       1  UNL1        0.2885
      9 C         142.7616  142.7863  165.4359 C.ar    1  UNL1        0.0479
     10 C         141.7376  143.7080  164.8429 C.ar    1  UNL1        0.0021
     11 C         142.1088  144.6056  163.6998 C.ar    1  UNL1       -0.0001
     12 C         143.5041  144.5814  163.1498 C.ar    1  UNL1       -0.0000
     13 C         144.5282  143.6597  163.7428 C.ar    1  UNL1       -0.0001
     14 C         144.1569  142.7622  164.8858 C.ar    1  UNL1        0.0021
     15 C         141.4844  141.2438  165.5724 C.ar    1  UNL1        0.0479
     16 C         139.9962  141.3260  165.7417 C.ar    1  UNL1        0.0021
     17 C         139.0901  140.6810  164.7351 C.ar    1  UNL1       -0.0001
     18 C         139.6722  139.9538  163.5594 C.ar    1  UNL1        0.0001
     19 C         141.1603  139.8716  163.3901 C.ar    1  UNL1        0.0029
     20 C         142.0665  140.5166  164.3967 C.ar    1  UNL1        0.0022
     21 C         141.7424  139.1444  162.2145 C.ar    1  UNL1        0.0384
     22 C         141.0255  139.1538  160.8969 C.ar    1  UNL1        0.1022
     23 N         141.6076  138.4266  159.7211 N.ar    1  UNL1       -0.2224
     24 C         142.9066  137.6900  159.8630 C.ar    1  UNL1        0.1989
     25 N         143.6235  137.6807  161.1805 N.ar    1  UNL1       -0.2224
     26 C         143.0415  138.4078  162.3562 C.ar    1  UNL1        0.1022
     27 C         142.5568  138.7799  170.1143 C.3     1  UNL1        0.0066
     28 C         142.1971  140.2359  170.0855 C.3     1  UNL1        0.0475
     29 C         141.5675  140.8768  171.2866 C.3     1  UNL1        0.0066
@<TRIPOS>BOND
     1    27    28    1
     2    28    29    1
     3    28     1    1
     4     1     2    2
     5     2     3    1
     6     3     9    1
     7     9    10   ar
     8    10    11   ar
     9    11    12   ar
    10    12    13   ar
    11    13    14   ar
    12     3    15    1
    13    15    16   ar
    14    16    17   ar
    15    17    18   ar
    16    18    19   ar
    17    19    21    1
    18    21    22   ar
    19    22    23   ar
    20    23    24   ar
    21    24    25   ar
    22    25    26   ar
    23    19    20   ar
    24     3     4    1
    25     4     5    2
    26     5     6    1
    27     5     1    1
    28    14     9   ar
    29    20    15   ar
    30    26    21   ar
    31     6     7    1
    32     6     8    1
