@<TRIPOS>MOLECULE
*****
 48 54 0 0 0
SMALL
GASTEIGER

@<TRIPOS>ATOM
      1 C         140.8166  141.1899  161.2128 C.3     1  UNL1        0.0236
      2 C         140.2457  140.0164  160.4732 C.3     1  UNL1        0.0257
      3 C         141.0308  139.3710  159.3699 C.3     1  UNL1        0.0940
      4 N         142.3867  139.8992  159.0062 N.am    1  UNL1       -0.2760
      5 C         143.1718  139.2539  157.9028 C.2     1  UNL1        0.2498
      6 O         144.5278  139.7821  157.5391 O.2     1  UNL1       -0.2699
      7 C         142.9577  141.0727  159.7457 C.3     1  UNL1        0.0940
      8 C         142.1727  141.7180  160.8490 C.3     1  UNL1        0.0257
      9 C         140.9304  142.3158  162.1974 C.ar    1  UNL1       -0.0204
     10 C         141.2168  142.0239  163.6406 C.ar    1  UNL1       -0.0041
     11 C         141.3306  143.1499  164.6252 C.ar    1  UNL1        0.0020
     12 C         141.1580  144.5676  164.1666 C.ar    1  UNL1        0.0296
     13 C         140.8716  144.8594  162.7233 C.ar    1  UNL1        0.1398
     14 F         140.6990  146.2770  162.2648 F       1  UNL1       -0.2042
     15 C         140.7578  143.7334  161.7388 C.ar    1  UNL1        0.0254
     16 C         142.6008  138.0804  157.1633 C.ar    1  UNL1        0.0642
     17 C         143.0369  136.6886  157.5137 C.ar    1  UNL1        0.0067
     18 C         142.4658  135.5152  156.7742 C.ar    1  UNL1        0.0160
     19 C         141.4587  135.7335  155.6842 C.ar    1  UNL1        0.0653
     20 C         141.0226  137.1253  155.3338 C.ar    1  UNL1        0.0274
     21 C         141.5936  138.2987  156.0734 C.ar    1  UNL1        0.0633
     22 CL        141.1575  139.6905  155.7230 Cl      1  UNL1       -0.0821
     23 N         140.8877  134.5601  154.9447 N.pl3   1  UNL1       -0.2187
     24 H         139.9149  134.4883  154.8113 H       1  UNL1        0.1734
     25 S         141.7987  133.4959  154.4085 S.O2    1  UNL1        0.0558
     26 C         142.7098  132.4317  153.8724 C.3     1  UNL1        0.1996
     27 O         142.3247  134.4606  153.3875 O.2     1  UNL1       -0.1544
     28 O         141.2728  132.5311  155.4296 O.2     1  UNL1       -0.1544
     29 C         139.5002  141.0527  161.9184 C.3     1  UNL1        0.0215
     30 C         138.2250  141.3720  161.1959 C.3     1  UNL1        0.0723
     31 C         138.1963  141.3089  161.0551 C.3     1  UNL1        0.0893
     32 C         138.6468  142.6133  160.4670 C.3     1  UNL1        0.0386
     33 C         138.6549  142.8021  158.9790 C.3     1  UNL1        0.0594
     34 C         138.5034  142.5500  157.5081 C.3     1  UNL1        0.0174
     35 C         137.9879  141.1529  157.3280 C.3     1  UNL1        0.0174
     36 C         137.8209  140.5416  158.6875 C.3     1  UNL1        0.0594
     37 C         137.7540  140.1935  160.1550 C.3     1  UNL1        0.0386
     38 N         138.2331  141.5608  159.7079 N.3     1  UNL1       -0.2751
     39 C         137.5942  143.5039  162.9298 C.3     1  UNL1        0.0718
     40 C         137.8936  142.1782  163.5646 C.ar    1  UNL1        0.1207
     41 N         137.9966  141.5520  164.9237 N.ar    1  UNL1       -0.2309
     42 C         138.3548  140.1067  164.7422 C.ar    1  UNL1        0.0983
     43 C         138.5884  138.9993  165.7266 C.ar    1  UNL1        0.0206
     44 C         138.9405  137.6249  165.2397 C.ar    1  UNL1        0.0016
     45 C         139.0589  137.3580  163.7684 C.ar    1  UNL1        0.0016
     46 C         138.8253  138.4654  162.7840 C.ar    1  UNL1        0.0188
     47 C         138.4732  139.8397  163.2709 C.ar    1  UNL1        0.0785
     48 N         138.1882  141.1200  162.5431 N.ar    1  UNL1       -0.3167
@<TRIPOS>BOND
     1    39    40    1
     2    40    41   ar
     3    41    42   ar
     4    42    43   ar
     5    43    44   ar
     6    44    45   ar
     7    45    46   ar
     8    46    47   ar
     9    47    48   ar
    10    48    31    1
    11    31    32    1
    12    32    33    1
    13    33    34    1
    14    34    35    1
    15    35    36    1
    16    36    37    1
    17    36    38    1
    18    38    30    1
    19    30    29    1
    20    29     1    1
    21     1     9    1
    22     9    10   ar
    23    10    11   ar
    24    11    12   ar
    25    12    13   ar
    26    13    14    1
    27    13    15   ar
    28     1     2    1
    29     2     3    1
    30     3     4    1
    31     4     5   am
    32     5     6    2
    33     5    16    1
    34    16    17   ar
    35    17    18   ar
    36    18    19   ar
    37    19    23    1
    38    23    25    1
    39    25    26    1
    40    25    27    2
    41    25    28    2
    42    19    20   ar
    43    20    21   ar
    44    21    22    1
    45     4     7    1
    46     7     8    1
    47    48    40   ar
    48    37    31    1
    49     8     1    1
    50    47    42   ar
    51    38    33    1
    52    15     9   ar
    53    21    16   ar
    54    23    24    1
@<TRIPOS>MOLECULE
*****
 48 54 0 0 0
SMALL
GASTEIGER

@<TRIPOS>ATOM
      1 C         141.7259  141.7995  165.0164 C.3     1  UNL1        0.0236
      2 C         141.8078  140.8516  163.8567 C.3     1  UNL1        0.0257
      3 C         141.9403  141.3841  162.4607 C.3     1  UNL1        0.0940
      4 N         141.9910  142.8645  162.2243 N.am    1  UNL1       -0.2760
      5 C         142.1236  143.3970  160.8283 C.2     1  UNL1        0.2498
      6 O         142.1743  144.8774  160.5919 O.2     1  UNL1       -0.2699
      7 C         141.9091  143.8124  163.3840 C.3     1  UNL1        0.0940
      8 C         141.7766  143.2799  164.7799 C.3     1  UNL1        0.0257
      9 C         141.6128  142.2928  166.4285 C.ar    1  UNL1       -0.0204
     10 C         140.3342  142.9156  166.9052 C.ar    1  UNL1       -0.0041
     11 C         140.2211  143.4089  168.3173 C.ar    1  UNL1        0.0020
     12 C         141.3866  143.2794  169.2525 C.ar    1  UNL1        0.0296
     13 C         142.6653  142.6566  168.7758 C.ar    1  UNL1        0.1398
     14 F         143.8307  142.5272  169.7110 F       1  UNL1       -0.2042
     15 C         142.7783  142.1633  167.3637 C.ar    1  UNL1        0.0254
     16 C         142.2054  142.4490  159.6687 C.ar    1  UNL1        0.0642
     17 C         143.5434  142.0208  159.1430 C.ar    1  UNL1        0.0067
     18 C         143.6252  141.0728  157.9834 C.ar    1  UNL1        0.0160
     19 C         142.3690  140.5531  157.3495 C.ar    1  UNL1        0.0653
     20 C         141.0310  140.9814  157.8751 C.ar    1  UNL1        0.0274
     21 C         140.9492  141.9293  159.0347 C.ar    1  UNL1        0.0633
     22 CL        139.6112  142.3576  159.5604 Cl      1  UNL1       -0.0821
     23 N         142.4509  139.6052  156.1899 N.pl3   1  UNL1       -0.2187
     24 H         142.2985  139.9332  155.2742 H       1  UNL1        0.1734
     25 S         142.7649  138.1574  156.4253 S.O2    1  UNL1        0.0558
     26 C         143.0789  136.7097  156.6608 C.3     1  UNL1        0.1996
     27 O         144.2013  138.4122  156.0763 O.2     1  UNL1       -0.1544
     28 O         141.3285  137.9026  156.7744 O.2     1  UNL1       -0.1544
     29 C         141.6360  140.4905  165.7431 C.3     1  UNL1        0.0215
     30 C         140.4055  139.6426  165.6117 C.3     1  UNL1        0.0723
     31 C         140.3516  139.6053  165.4690 C.3     1  UNL1        0.0893
     32 C         139.3427  140.7004  165.6519 C.3     1  UNL1        0.0386
     33 C         138.3449  140.9892  164.5698 C.3     1  UNL1        0.0594
     34 C         137.5779  140.9247  163.2823 C.3     1  UNL1        0.0174
     35 C         138.1666  139.8271  162.4465 C.3     1  UNL1        0.0174
     36 C         139.2975  139.2132  163.2173 C.3     1  UNL1        0.0594
     37 C         140.3625  138.7993  164.2042 C.3     1  UNL1        0.0386
     38 N         139.4078  139.9314  164.5296 N.3     1  UNL1       -0.2751
     39 C         143.0347  138.5201  164.9047 C.3     1  UNL1        0.0718
     40 C         142.7306  138.7660  166.3528 C.ar    1  UNL1        0.1207
     41 N         143.3759  138.6368  167.7007 N.ar    1  UNL1       -0.2309
     42 C         142.3937  139.1073  168.7320 C.ar    1  UNL1        0.0983
     43 C         142.4779  139.2076  170.2263 C.ar    1  UNL1        0.0206
     44 C         141.3096  139.7279  171.0101 C.ar    1  UNL1        0.0016
     45 C         140.0571  140.1480  170.2996 C.ar    1  UNL1        0.0016
     46 C         139.9729  140.0478  168.8054 C.ar    1  UNL1        0.0188
     47 C         141.1412  139.5274  168.0216 C.ar    1  UNL1        0.0785
     48 N         141.3494  139.3165  166.5511 N.ar    1  UNL1       -0.3167
@<TRIPOS>BOND
     1    39    40    1
     2    40    41   ar
     3    41    42   ar
     4    42    43   ar
     5    43    44   ar
     6    44    45   ar
     7    45    46   ar
     8    46    47   ar
     9    47    48   ar
    10    48    31    1
    11    31    32    1
    12    32    33    1
    13    33    34    1
    14    34    35    1
    15    35    36    1
    16    36    37    1
    17    36    38    1
    18    38    30    1
    19    30    29    1
    20    29     1    1
    21     1     9    1
    22     9    10   ar
    23    10    11   ar
    24    11    12   ar
    25    12    13   ar
    26    13    14    1
    27    13    15   ar
    28     1     2    1
    29     2     3    1
    30     3     4    1
    31     4     5   am
    32     5     6    2
    33     5    16    1
    34    16    17   ar
    35    17    18   ar
    36    18    19   ar
    37    19    23    1
    38    23    25    1
    39    25    26    1
    40    25    27    2
    41    25    28    2
    42    19    20   ar
    43    20    21   ar
    44    21    22    1
    45     4     7    1
    46     7     8    1
    47    48    40   ar
    48    37    31    1
    49     8     1    1
    50    47    42   ar
    51    38    33    1
    52    15     9   ar
    53    21    16   ar
    54    23    24    1
@<TRIPOS>MOLECULE
*****
 48 54 0 0 0
SMALL
GASTEIGER

@<TRIPOS>ATOM
      1 C         140.5494  141.5766  164.8279 C.3     1  UNL1        0.0236
      2 C         141.5191  142.0275  163.7760 C.3     1  UNL1        0.0257
      3 C         141.0154  142.4953  162.4427 C.3     1  UNL1        0.0940
      4 N         139.5421  142.5122  162.1614 N.am    1  UNL1       -0.2760
      5 C         139.0385  142.9800  160.8281 C.2     1  UNL1        0.2498
      6 O         137.5652  142.9969  160.5468 O.2     1  UNL1       -0.2699
      7 C         138.5725  142.0613  163.2133 C.3     1  UNL1        0.0940
      8 C         139.0761  141.5935  164.5465 C.3     1  UNL1        0.0257
      9 C         140.0286  141.0572  166.1352 C.ar    1  UNL1       -0.0204
     10 C         139.3436  139.7240  166.1931 C.ar    1  UNL1       -0.0041
     11 C         138.8228  139.2045  167.5005 C.ar    1  UNL1        0.0020
     12 C         138.9869  140.0184  168.7497 C.ar    1  UNL1        0.0296
     13 C         139.6719  141.3517  168.6917 C.ar    1  UNL1        0.1398
     14 F         139.8360  142.1654  169.9410 F       1  UNL1       -0.2042
     15 C         140.1927  141.8710  167.3844 C.ar    1  UNL1        0.0254
     16 C         140.0082  143.4309  159.7763 C.ar    1  UNL1        0.0642
     17 C         140.4631  142.4729  158.7155 C.ar    1  UNL1        0.0067
     18 C         141.4328  142.9239  157.6636 C.ar    1  UNL1        0.0160
     19 C         141.9476  144.3328  157.6727 C.ar    1  UNL1        0.0653
     20 C         141.4926  145.2907  158.7335 C.ar    1  UNL1        0.0274
     21 C         140.5229  144.8398  159.7853 C.ar    1  UNL1        0.0633
     22 CL        140.0680  145.7977  160.8461 Cl      1  UNL1       -0.0821
     23 N         142.9173  144.7837  156.6208 N.pl3   1  UNL1       -0.2187
     24 H         143.7554  145.2291  156.8824 H       1  UNL1        0.1734
     25 S         142.6101  144.5560  155.1704 S.O2    1  UNL1        0.0558
     26 C         142.3029  144.3284  153.7200 C.3     1  UNL1        0.1996
     27 O         143.6840  143.5107  155.1070 O.2     1  UNL1       -0.1544
     28 O         141.5361  145.6013  155.2338 O.2     1  UNL1       -0.1544
     29 C         141.8418  141.3793  165.5632 C.3     1  UNL1        0.0215
     30 C         142.7810  140.2855  165.1490 C.3     1  UNL1        0.0723
     31 C         142.8147  140.2625  164.9974 C.3     1  UNL1        0.0893
     32 C         141.8000  139.1580  165.0216 C.3     1  UNL1        0.0386
     33 C         141.5256  138.3643  163.7787 C.3     1  UNL1        0.0594
     34 C         141.5776  137.8620  162.3663 C.3     1  UNL1        0.0174
     35 C         142.5907  138.6791  161.6208 C.3     1  UNL1        0.0174
     36 C         143.1649  139.6864  162.5724 C.3     1  UNL1        0.0594
     37 C         143.5549  140.5732  163.7303 C.3     1  UNL1        0.0386
     38 N         142.5066  139.4919  163.9062 N.3     1  UNL1       -0.2751
     39 C         143.7382  143.0620  164.9208 C.3     1  UNL1        0.0718
     40 C         143.5597  142.4795  166.2916 C.ar    1  UNL1        0.1207
     41 N         143.7026  142.8688  167.7331 N.ar    1  UNL1       -0.2309
     42 C         143.3205  141.6860  168.5728 C.ar    1  UNL1        0.0983
     43 C         143.2689  141.4844  170.0582 C.ar    1  UNL1        0.0206
     44 C         142.8381  140.1624  170.6210 C.ar    1  UNL1        0.0016
     45 C         142.4590  139.0421  169.6984 C.ar    1  UNL1        0.0016
     46 C         142.5107  139.2438  168.2130 C.ar    1  UNL1        0.0188
     47 C         142.9414  140.5657  167.6501 C.ar    1  UNL1        0.0785
     48 N         143.0892  141.0562  166.2403 N.ar    1  UNL1       -0.3167
@<TRIPOS>BOND
     1    39    40    1
     2    40    41   ar
     3    41    42   ar
     4    42    43   ar
     5    43    44   ar
     6    44    45   ar
     7    45    46   ar
     8    46    47   ar
     9    47    48   ar
    10    48    31    1
    11    31    32    1
    12    32    33    1
    13    33    34    1
    14    34    35    1
    15    35    36    1
    16    36    37    1
    17    36    38    1
    18    38    30    1
    19    30    29    1
    20    29     1    1
    21     1     9    1
    22     9    10   ar
    23    10    11   ar
    24    11    12   ar
    25    12    13   ar
    26    13    14    1
    27    13    15   ar
    28     1     2    1
    29     2     3    1
    30     3     4    1
    31     4     5   am
    32     5     6    2
    33     5    16    1
    34    16    17   ar
    35    17    18   ar
    36    18    19   ar
    37    19    23    1
    38    23    25    1
    39    25    26    1
    40    25    27    2
    41    25    28    2
    42    19    20   ar
    43    20    21   ar
    44    21    22    1
    45     4     7    1
    46     7     8    1
    47    48    40   ar
    48    37    31    1
    49     8     1    1
    50    47    42   ar
    51    38    33    1
    52    15     9   ar
    53    21    16   ar
    54    23    24    1
@<TRIPOS>MOLECULE
*****
 48 54 0 0 0
SMALL
GASTEIGER

@<TRIPOS>ATOM
      1 C         142.0488  141.3872  161.8796 C.3     1  UNL1        0.0236
      2 C         141.0406  140.8218  160.9236 C.3     1  UNL1        0.0257
      3 C         141.4806  140.3169  159.5814 C.3     1  UNL1        0.0940
      4 N         142.9287  140.3774  159.1952 N.am    1  UNL1       -0.2760
      5 C         143.3687  139.8725  157.8529 C.2     1  UNL1        0.2498
      6 O         144.8168  139.9330  157.4667 O.2     1  UNL1       -0.2699
      7 C         143.9369  140.9428  160.1511 C.3     1  UNL1        0.0940
      8 C         143.4970  141.4477  161.4933 C.3     1  UNL1        0.0257
      9 C         142.6234  142.0063  163.1193 C.ar    1  UNL1       -0.0204
     10 C         142.7548  141.1924  164.3723 C.ar    1  UNL1       -0.0041
     11 C         143.3294  141.8115  165.6120 C.ar    1  UNL1        0.0020
     12 C         143.7726  143.2444  165.5984 C.ar    1  UNL1        0.0296
     13 C         143.6413  144.0583  164.3452 C.ar    1  UNL1        0.1398
     14 F         144.0845  145.4912  164.3317 F       1  UNL1       -0.2042
     15 C         143.0666  143.4391  163.1056 C.ar    1  UNL1        0.0254
     16 C         142.3604  139.3071  156.8970 C.ar    1  UNL1        0.0642
     17 C         141.6073  140.2194  155.9748 C.ar    1  UNL1        0.0067
     18 C         140.5991  139.6539  155.0189 C.ar    1  UNL1        0.0160
     19 C         140.3440  138.1761  154.9853 C.ar    1  UNL1        0.0653
     20 C         141.0971  137.2638  155.9075 C.ar    1  UNL1        0.0274
     21 C         142.1054  137.8293  156.8634 C.ar    1  UNL1        0.0633
     22 CL        142.8585  136.9170  157.7856 Cl      1  UNL1       -0.0821
     23 N         139.3357  137.6107  154.0294 N.pl3   1  UNL1       -0.2187
     24 H         139.6128  136.9464  153.3577 H       1  UNL1        0.1734
     25 S         137.9054  138.0575  154.0968 S.O2    1  UNL1        0.0558
     26 C         136.4751  138.5042  154.1642 C.3     1  UNL1        0.1996
     27 O         137.7155  137.2599  155.3529 O.2     1  UNL1       -0.1544
     28 O         138.0953  138.8550  152.8407 O.2     1  UNL1       -0.1544
     29 C         140.8002  141.5416  162.6963 C.3     1  UNL1        0.0215
     30 C         139.7566  142.5394  162.2897 C.3     1  UNL1        0.0723
     31 C         139.7080  142.5450  162.1405 C.3     1  UNL1        0.0893
     32 C         140.6238  143.7207  161.9693 C.3     1  UNL1        0.0386
     33 C         140.7212  144.4082  160.6397 C.3     1  UNL1        0.0594
     34 C         140.5043  144.7653  159.1991 C.3     1  UNL1        0.0174
     35 C         139.5031  143.8047  158.6291 C.3     1  UNL1        0.0174
     36 C         139.1011  142.8540  159.7174 C.3     1  UNL1        0.0594
     37 C         138.8897  142.0570  160.9821 C.3     1  UNL1        0.0386
     38 N         139.8539  143.2270  160.9602 N.3     1  UNL1       -0.2751
     39 C         139.9349  143.9961  164.6976 C.3     1  UNL1        0.0718
     40 C         139.7145  142.5169  164.8134 C.ar    1  UNL1        0.1207
     41 N         139.5604  141.4567  165.8633 N.ar    1  UNL1       -0.2309
     42 C         139.3614  140.1421  165.1689 C.ar    1  UNL1        0.0983
     43 C         139.1559  138.7515  165.6924 C.ar    1  UNL1        0.0206
     44 C         138.9815  137.6086  164.7368 C.ar    1  UNL1        0.0016
     45 C         139.0125  137.8563  163.2577 C.ar    1  UNL1        0.0016
     46 C         139.2180  139.2469  162.7342 C.ar    1  UNL1        0.0188
     47 C         139.3925  140.3898  163.6898 C.ar    1  UNL1        0.0785
     48 N         139.6107  141.8575  163.4701 N.ar    1  UNL1       -0.3167
@<TRIPOS>BOND
     1    39    40    1
     2    40    41   ar
     3    41    42   ar
     4    42    43   ar
     5    43    44   ar
     6    44    45   ar
     7    45    46   ar
     8    46    47   ar
     9    47    48   ar
    10    48    31    1
    11    31    32    1
    12    32    33    1
    13    33    34    1
    14    34    35    1
    15    35    36    1
    16    36    37    1
    17    36    38    1
    18    38    30    1
    19    30    29    1
    20    29     1    1
    21     1     9    1
    22     9    10   ar
    23    10    11   ar
    24    11    12   ar
    25    12    13   ar
    26    13    14    1
    27    13    15   ar
    28     1     2    1
    29     2     3    1
    30     3     4    1
    31     4     5   am
    32     5     6    2
    33     5    16    1
    34    16    17   ar
    35    17    18   ar
    36    18    19   ar
    37    19    23    1
    38    23    25    1
    39    25    26    1
    40    25    27    2
    41    25    28    2
    42    19    20   ar
    43    20    21   ar
    44    21    22    1
    45     4     7    1
    46     7     8    1
    47    48    40   ar
    48    37    31    1
    49     8     1    1
    50    47    42   ar
    51    38    33    1
    52    15     9   ar
    53    21    16   ar
    54    23    24    1
@<TRIPOS>MOLECULE
*****
 48 54 0 0 0
SMALL
GASTEIGER

@<TRIPOS>ATOM
      1 C         140.5450  141.7733  161.4825 C.3     1  UNL1        0.0236
      2 C         141.0102  142.1994  162.8434 C.3     1  UNL1        0.0257
      3 C         140.9192  141.2476  163.9992 C.3     1  UNL1        0.0940
      4 N         140.3630  139.8697  163.7942 N.am    1  UNL1       -0.2760
      5 C         140.2720  138.9179  164.9500 C.2     1  UNL1        0.2498
      6 O         139.7158  137.5401  164.7449 O.2     1  UNL1       -0.2699
      7 C         139.8978  139.4436  162.4333 C.3     1  UNL1        0.0940
      8 C         139.9887  140.3953  161.2775 C.3     1  UNL1        0.0257
      9 C         140.2355  141.8328  160.0159 C.ar    1  UNL1       -0.0204
     10 C         139.0399  142.5985  159.5322 C.ar    1  UNL1       -0.0041
     11 C         138.7305  142.6580  158.0656 C.ar    1  UNL1        0.0020
     12 C         139.6168  141.9518  157.0829 C.ar    1  UNL1        0.0296
     13 C         140.8125  141.1861  157.5667 C.ar    1  UNL1        0.1398
     14 F         141.6988  140.4800  156.5840 F       1  UNL1       -0.2042
     15 C         141.1218  141.1267  159.0333 C.ar    1  UNL1        0.0254
     16 C         140.7373  139.3441  166.3108 C.ar    1  UNL1        0.0642
     17 C         139.7658  139.9496  167.2801 C.ar    1  UNL1        0.0067
     18 C         140.2311  140.3758  168.6409 C.ar    1  UNL1        0.0160
     19 C         141.6680  140.1965  169.0325 C.ar    1  UNL1        0.0653
     20 C         142.6395  139.5909  168.0632 C.ar    1  UNL1        0.0274
     21 C         142.1742  139.1648  166.7024 C.ar    1  UNL1        0.0633
     22 CL        143.1457  138.5592  165.7331 Cl      1  UNL1       -0.0821
     23 N         142.1333  140.6226  170.3933 N.pl3   1  UNL1       -0.2187
     24 H         142.2150  139.9589  171.1158 H       1  UNL1        0.1734
     25 S         142.4739  142.0601  170.6534 S.O2    1  UNL1        0.0558
     26 C         142.8146  143.4975  170.9135 C.3     1  UNL1        0.1996
     27 O         141.2787  142.1808  171.5516 O.2     1  UNL1       -0.1544
     28 O         143.6692  141.9393  169.7552 O.2     1  UNL1       -0.1544
     29 C         140.9937  143.1718  161.1783 C.3     1  UNL1        0.0215
     30 C         142.4443  143.5360  161.2941 C.3     1  UNL1        0.0723
     31 C         142.5274  143.5062  161.4239 C.3     1  UNL1        0.0893
     32 C         143.0098  142.2644  160.7343 C.3     1  UNL1        0.0386
     33 C         143.9617  141.3399  161.4336 C.3     1  UNL1        0.0594
     34 C         144.8648  140.7387  162.4694 C.3     1  UNL1        0.0174
     35 C         144.8574  141.6387  163.6694 C.3     1  UNL1        0.0174
     36 C         143.9498  142.7961  163.3752 C.3     1  UNL1        0.0594
     37 C         142.9969  143.8232  162.8127 C.3     1  UNL1        0.0386
     38 N         143.3962  142.6115  161.9933 N.3     1  UNL1       -0.2751
     39 C         140.4206  144.9932  162.8543 C.3     1  UNL1        0.0718
     40 C         140.4789  145.2227  161.3731 C.ar    1  UNL1        0.1207
     41 N         139.7787  146.0070  160.3033 N.ar    1  UNL1       -0.2309
     42 C         140.4424  145.6998  158.9936 C.ar    1  UNL1        0.0983
     43 C         140.1791  146.1813  157.5977 C.ar    1  UNL1        0.0206
     44 C         141.0262  145.6886  156.4621 C.ar    1  UNL1        0.0016
     45 C         142.1366  144.7144  156.7225 C.ar    1  UNL1        0.0016
     46 C         142.4000  144.2329  158.1185 C.ar    1  UNL1        0.0188
     47 C         141.5529  144.7256  159.2540 C.ar    1  UNL1        0.0785
     48 N         141.5754  144.4307  160.7246 N.ar    1  UNL1       -0.3167
@<TRIPOS>BOND
     1    39    40    1
     2    40    41   ar
     3    41    42   ar
     4    42    43   ar
     5    43    44   ar
     6    44    45   ar
     7    45    46   ar
     8    46    47   ar
     9    47    48   ar
    10    48    31    1
    11    31    32    1
    12    32    33    1
    13    33    34    1
    14    34    35    1
    15    35    36    1
    16    36    37    1
    17    36    38    1
    18    38    30    1
    19    30    29    1
    20    29     1    1
    21     1     9    1
    22     9    10   ar
    23    10    11   ar
    24    11    12   ar
    25    12    13   ar
    26    13    14    1
    27    13    15   ar
    28     1     2    1
    29     2     3    1
    30     3     4    1
    31     4     5   am
    32     5     6    2
    33     5    16    1
    34    16    17   ar
    35    17    18   ar
    36    18    19   ar
    37    19    23    1
    38    23    25    1
    39    25    26    1
    40    25    27    2
    41    25    28    2
    42    19    20   ar
    43    20    21   ar
    44    21    22    1
    45     4     7    1
    46     7     8    1
    47    48    40   ar
    48    37    31    1
    49     8     1    1
    50    47    42   ar
    51    38    33    1
    52    15     9   ar
    53    21    16   ar
    54    23    24    1
@<TRIPOS>MOLECULE
*****
 48 54 0 0 0
SMALL
GASTEIGER

@<TRIPOS>ATOM
      1 C         140.3474  141.5291  161.4384 C.3     1  UNL1        0.0236
      2 C         141.0437  141.9126  162.7105 C.3     1  UNL1        0.0257
      3 C         140.8231  141.1092  163.9579 C.3     1  UNL1        0.0940
      4 N         139.9061  139.9224  163.9332 N.am    1  UNL1       -0.2760
      5 C         139.6855  139.1190  165.1806 C.2     1  UNL1        0.2498
      6 O         138.7686  137.9322  165.1560 O.2     1  UNL1       -0.2699
      7 C         139.2098  139.5389  162.6612 C.3     1  UNL1        0.0940
      8 C         139.4304  140.3421  161.4139 C.3     1  UNL1        0.0257
      9 C         139.9176  141.5616  160.0016 C.ar    1  UNL1       -0.0204
     10 C         138.5344  142.0175  159.6427 C.ar    1  UNL1       -0.0041
     11 C         138.1047  142.0501  158.2059 C.ar    1  UNL1        0.0020
     12 C         139.0582  141.6267  157.1281 C.ar    1  UNL1        0.0296
     13 C         140.4415  141.1708  157.4871 C.ar    1  UNL1        0.1398
     14 F         141.3949  140.7474  156.4094 F       1  UNL1       -0.2042
     15 C         140.8711  141.1383  158.9239 C.ar    1  UNL1        0.0254
     16 C         140.3819  139.5026  166.4526 C.ar    1  UNL1        0.0642
     17 C         139.6404  140.2582  167.5152 C.ar    1  UNL1        0.0067
     18 C         140.3368  140.6418  168.7872 C.ar    1  UNL1        0.0160
     19 C         141.7748  140.2697  168.9965 C.ar    1  UNL1        0.0653
     20 C         142.5163  139.5140  167.9339 C.ar    1  UNL1        0.0274
     21 C         141.8199  139.1305  166.6620 C.ar    1  UNL1        0.0633
     22 CL        142.5614  138.3748  165.5994 Cl      1  UNL1       -0.0821
     23 N         142.4711  140.6532  170.2685 N.pl3   1  UNL1       -0.2187
     24 H         142.7596  139.9563  170.9012 H       1  UNL1        0.1734
     25 S         142.7280  142.0986  170.5766 S.O2    1  UNL1        0.0558
     26 C         142.9848  143.5440  170.8846 C.3     1  UNL1        0.1996
     27 O         141.6958  142.0503  171.6639 O.2     1  UNL1       -0.1544
     28 O         143.7602  142.1469  169.4892 O.2     1  UNL1       -0.1544
     29 C         141.1150  142.7272  160.9641 C.3     1  UNL1        0.0215
     30 C         140.7858  144.0892  161.4997 C.3     1  UNL1        0.0723
     31 C         140.7736  144.1187  161.6534 C.3     1  UNL1        0.0893
     32 C         139.2946  143.9272  161.4914 C.3     1  UNL1        0.0386
     33 C         138.3860  144.0676  162.6766 C.3     1  UNL1        0.0594
     34 C         137.8873  144.2945  164.0730 C.3     1  UNL1        0.0174
     35 C         139.0704  144.5967  164.9443 C.3     1  UNL1        0.0174
     36 C         140.3002  144.5565  164.0864 C.3     1  UNL1        0.0594
     37 C         141.3437  144.4505  163.0005 C.3     1  UNL1        0.0386
     38 N         139.8772  144.2295  162.6848 N.3     1  UNL1       -0.2751
     39 C         143.4994  143.0139  161.8658 C.3     1  UNL1        0.0718
     40 C         143.0779  143.4289  160.4874 C.ar    1  UNL1        0.1207
     41 N         143.6129  143.4737  159.0868 N.ar    1  UNL1       -0.2309
     42 C         142.5480  144.0508  158.2020 C.ar    1  UNL1        0.0983
     43 C         142.5107  144.3326  156.7292 C.ar    1  UNL1        0.0206
     44 C         141.2801  144.9263  156.1102 C.ar    1  UNL1        0.0016
     45 C         140.0869  145.2382  156.9640 C.ar    1  UNL1        0.0016
     46 C         140.1242  144.9564  158.4367 C.ar    1  UNL1        0.0188
     47 C         141.3547  144.3627  159.0558 C.ar    1  UNL1        0.0785
     48 N         141.6822  143.9783  160.4682 N.ar    1  UNL1       -0.3167
@<TRIPOS>BOND
     1    39    40    1
     2    40    41   ar
     3    41    42   ar
     4    42    43   ar
     5    43    44   ar
     6    44    45   ar
     7    45    46   ar
     8    46    47   ar
     9    47    48   ar
    10    48    31    1
    11    31    32    1
    12    32    33    1
    13    33    34    1
    14    34    35    1
    15    35    36    1
    16    36    37    1
    17    36    38    1
    18    38    30    1
    19    30    29    1
    20    29     1    1
    21     1     9    1
    22     9    10   ar
    23    10    11   ar
    24    11    12   ar
    25    12    13   ar
    26    13    14    1
    27    13    15   ar
    28     1     2    1
    29     2     3    1
    30     3     4    1
    31     4     5   am
    32     5     6    2
    33     5    16    1
    34    16    17   ar
    35    17    18   ar
    36    18    19   ar
    37    19    23    1
    38    23    25    1
    39    25    26    1
    40    25    27    2
    41    25    28    2
    42    19    20   ar
    43    20    21   ar
    44    21    22    1
    45     4     7    1
    46     7     8    1
    47    48    40   ar
    48    37    31    1
    49     8     1    1
    50    47    42   ar
    51    38    33    1
    52    15     9   ar
    53    21    16   ar
    54    23    24    1
@<TRIPOS>MOLECULE
*****
 48 54 0 0 0
SMALL
GASTEIGER

@<TRIPOS>ATOM
      1 C         140.4631  142.1920  161.6528 C.3     1  UNL1        0.0236
      2 C         141.3889  141.4160  160.7636 C.3     1  UNL1        0.0257
      3 C         140.8487  140.6987  159.5620 C.3     1  UNL1        0.0940
      4 N         139.3828  140.7574  159.2497 N.am    1  UNL1       -0.2760
      5 C         138.8427  140.0401  158.0481 C.2     1  UNL1        0.2498
      6 O         137.3767  140.0988  157.7357 O.2     1  UNL1       -0.2699
      7 C         138.4570  141.5334  160.1389 C.3     1  UNL1        0.0940
      8 C         138.9970  142.2507  161.3404 C.3     1  UNL1        0.0257
      9 C         139.9891  143.0513  162.7874 C.ar    1  UNL1       -0.0204
     10 C         139.4455  144.4222  162.5136 C.ar    1  UNL1       -0.0041
     11 C         138.9715  145.2814  163.6482 C.ar    1  UNL1        0.0020
     12 C         139.0413  144.7696  165.0565 C.ar    1  UNL1        0.0296
     13 C         139.5850  143.3987  165.3302 C.ar    1  UNL1        0.1398
     14 F         139.6547  142.8870  166.7384 F       1  UNL1       -0.2042
     15 C         140.0589  142.5395  164.1956 C.ar    1  UNL1        0.0254
     16 C         139.7685  139.2642  157.1589 C.ar    1  UNL1        0.0642
     17 C         139.9263  137.7846  157.3490 C.ar    1  UNL1        0.0067
     18 C         140.8522  137.0088  156.4597 C.ar    1  UNL1        0.0160
     19 C         141.6204  137.7124  155.3805 C.ar    1  UNL1        0.0653
     20 C         141.4626  139.1919  155.1904 C.ar    1  UNL1        0.0274
     21 C         140.5367  139.9678  156.0796 C.ar    1  UNL1        0.0633
     22 CL        140.3790  141.4473  155.8896 Cl      1  UNL1       -0.0821
     23 N         142.5462  136.9365  154.4913 N.pl3   1  UNL1       -0.2187
     24 H         142.7188  137.2441  153.5721 H       1  UNL1        0.1734
     25 S         143.2092  135.6919  155.0025 S.O2    1  UNL1        0.0558
     26 C         143.8722  134.4472  155.5137 C.3     1  UNL1        0.1996
     27 O         142.2640  134.8554  154.1919 O.2     1  UNL1       -0.1544
     28 O         144.1544  136.5283  155.8130 O.2     1  UNL1       -0.1544
     29 C         141.7643  142.4317  162.3592 C.3     1  UNL1        0.0215
     30 C         142.8068  143.3102  161.7333 C.3     1  UNL1        0.0723
     31 C         142.8498  143.2928  161.5833 C.3     1  UNL1        0.0893
     32 C         141.8990  144.4081  161.2636 C.3     1  UNL1        0.0386
     33 C         141.7365  144.8720  159.8464 C.3     1  UNL1        0.0594
     34 C         141.8922  144.9980  158.3598 C.3     1  UNL1        0.0174
     35 C         142.8962  143.9780  157.9108 C.3     1  UNL1        0.0174
     36 C         143.3610  143.2216  159.1199 C.3     1  UNL1        0.0594
     37 C         143.6379  142.6414  160.4859 C.3     1  UNL1        0.0386
     38 N         142.6443  143.7741  160.3162 N.3     1  UNL1       -0.2751
     39 C         142.8540  145.1531  163.8713 C.3     1  UNL1        0.0718
     40 C         143.0259  143.7041  164.2186 C.ar    1  UNL1        0.1207
     41 N         143.2117  142.8244  165.4193 N.ar    1  UNL1       -0.2309
     42 C         143.3129  141.4056  164.9433 C.ar    1  UNL1        0.0983
     43 C         143.5014  140.1115  165.6779 C.ar    1  UNL1        0.0206
     44 C         143.5665  138.8201  164.9176 C.ar    1  UNL1        0.0016
     45 C         143.4433  138.8229  163.4227 C.ar    1  UNL1        0.0016
     46 C         143.2548  140.1170  162.6881 C.ar    1  UNL1        0.0188
     47 C         143.1896  141.4083  163.4484 C.ar    1  UNL1        0.0785
     48 N         143.0123  142.8289  163.0005 N.ar    1  UNL1       -0.3167
@<TRIPOS>BOND
     1    39    40    1
     2    40    41   ar
     3    41    42   ar
     4    42    43   ar
     5    43    44   ar
     6    44    45   ar
     7    45    46   ar
     8    46    47   ar
     9    47    48   ar
    10    48    31    1
    11    31    32    1
    12    32    33    1
    13    33    34    1
    14    34    35    1
    15    35    36    1
    16    36    37    1
    17    36    38    1
    18    38    30    1
    19    30    29    1
    20    29     1    1
    21     1     9    1
    22     9    10   ar
    23    10    11   ar
    24    11    12   ar
    25    12    13   ar
    26    13    14    1
    27    13    15   ar
    28     1     2    1
    29     2     3    1
    30     3     4    1
    31     4     5   am
    32     5     6    2
    33     5    16    1
    34    16    17   ar
    35    17    18   ar
    36    18    19   ar
    37    19    23    1
    38    23    25    1
    39    25    26    1
    40    25    27    2
    41    25    28    2
    42    19    20   ar
    43    20    21   ar
    44    21    22    1
    45     4     7    1
    46     7     8    1
    47    48    40   ar
    48    37    31    1
    49     8     1    1
    50    47    42   ar
    51    38    33    1
    52    15     9   ar
    53    21    16   ar
    54    23    24    1
@<TRIPOS>MOLECULE
*****
 48 54 0 0 0
SMALL
GASTEIGER

@<TRIPOS>ATOM
      1 C         140.0899  140.7012  161.2860 C.3     1  UNL1        0.0236
      2 C         140.8895  141.1987  162.4536 C.3     1  UNL1        0.0257
      3 C         140.7037  140.5806  163.8076 C.3     1  UNL1        0.0940
      4 N         139.7185  139.4650  163.9941 N.am    1  UNL1       -0.2760
      5 C         139.5327  138.8469  165.3481 C.2     1  UNL1        0.2498
      6 O         138.5475  137.7313  165.5346 O.2     1  UNL1       -0.2699
      7 C         138.9189  138.9676  162.8265 C.3     1  UNL1        0.0940
      8 C         139.1046  139.5856  161.4725 C.3     1  UNL1        0.0257
      9 C         139.5698  140.5761  159.8845 C.ar    1  UNL1       -0.0204
     10 C         139.9062  139.3657  159.0650 C.ar    1  UNL1       -0.0041
     11 C         139.3861  139.2405  157.6636 C.ar    1  UNL1        0.0020
     12 C         138.5295  140.3259  157.0819 C.ar    1  UNL1        0.0296
     13 C         138.1931  141.5363  157.9015 C.ar    1  UNL1        0.1398
     14 F         137.3366  142.6215  157.3197 F       1  UNL1       -0.2042
     15 C         138.7133  141.6614  159.3029 C.ar    1  UNL1        0.0254
     16 C         140.3323  139.3444  166.5157 C.ar    1  UNL1        0.0642
     17 C         139.6684  140.1563  167.5880 C.ar    1  UNL1        0.0067
     18 C         140.4680  140.6538  168.7556 C.ar    1  UNL1        0.0160
     19 C         141.9316  140.3393  168.8507 C.ar    1  UNL1        0.0653
     20 C         142.5955  139.5273  167.7784 C.ar    1  UNL1        0.0274
     21 C         141.7959  139.0299  166.6109 C.ar    1  UNL1        0.0633
     22 CL        142.4598  138.2179  165.5385 Cl      1  UNL1       -0.0821
     23 N         142.7312  140.8368  170.0183 N.pl3   1  UNL1       -0.2187
     24 H         143.2793  140.2092  170.5427 H       1  UNL1        0.1734
     25 S         142.6957  142.2903  170.3868 S.O2    1  UNL1        0.0558
     26 C         142.6602  143.7439  170.7554 C.3     1  UNL1        0.1996
     27 O         143.5118  142.6183  169.1718 O.2     1  UNL1       -0.1544
     28 O         141.8796  141.9623  171.6019 O.2     1  UNL1       -0.1544
     29 C         140.8945  141.7733  160.6129 C.3     1  UNL1        0.0215
     30 C         142.3676  141.5846  160.4018 C.3     1  UNL1        0.0723
     31 C         142.4563  141.5242  160.5163 C.3     1  UNL1        0.0893
     32 C         142.3685  140.2167  159.7863 C.3     1  UNL1        0.0386
     33 C         143.0557  139.0025  160.3372 C.3     1  UNL1        0.0594
     34 C         143.8632  138.0976  161.2198 C.3     1  UNL1        0.0174
     35 C         144.3614  138.9062  162.3808 C.3     1  UNL1        0.0174
     36 C         143.8618  140.3109  162.2157 C.3     1  UNL1        0.0594
     37 C         143.2314  141.6173  161.7971 C.3     1  UNL1        0.0386
     38 N         143.0548  140.3705  160.9526 N.3     1  UNL1       -0.2751
     39 C         142.1273  141.9852  157.6224 C.3     1  UNL1        0.0718
     40 C         141.5595  143.0501  158.5133 C.ar    1  UNL1        0.1207
     41 N         140.8317  144.3584  158.4204 N.ar    1  UNL1       -0.2309
     42 C         140.5916  144.8554  159.8152 C.ar    1  UNL1        0.0983
     43 C         139.9203  146.0902  160.3391 C.ar    1  UNL1        0.0206
     44 C         139.8284  146.3237  161.8179 C.ar    1  UNL1        0.0016
     45 C         140.4078  145.3225  162.7728 C.ar    1  UNL1        0.0016
     46 C         141.0791  144.0877  162.2489 C.ar    1  UNL1        0.0188
     47 C         141.1710  143.8541  160.7701 C.ar    1  UNL1        0.0785
     48 N         141.7692  142.7384  159.9654 N.ar    1  UNL1       -0.3167
@<TRIPOS>BOND
     1    39    40    1
     2    40    41   ar
     3    41    42   ar
     4    42    43   ar
     5    43    44   ar
     6    44    45   ar
     7    45    46   ar
     8    46    47   ar
     9    47    48   ar
    10    48    31    1
    11    31    32    1
    12    32    33    1
    13    33    34    1
    14    34    35    1
    15    35    36    1
    16    36    37    1
    17    36    38    1
    18    38    30    1
    19    30    29    1
    20    29     1    1
    21     1     9    1
    22     9    10   ar
    23    10    11   ar
    24    11    12   ar
    25    12    13   ar
    26    13    14    1
    27    13    15   ar
    28     1     2    1
    29     2     3    1
    30     3     4    1
    31     4     5   am
    32     5     6    2
    33     5    16    1
    34    16    17   ar
    35    17    18   ar
    36    18    19   ar
    37    19    23    1
    38    23    25    1
    39    25    26    1
    40    25    27    2
    41    25    28    2
    42    19    20   ar
    43    20    21   ar
    44    21    22    1
    45     4     7    1
    46     7     8    1
    47    48    40   ar
    48    37    31    1
    49     8     1    1
    50    47    42   ar
    51    38    33    1
    52    15     9   ar
    53    21    16   ar
    54    23    24    1
@<TRIPOS>MOLECULE
*****
 48 54 0 0 0
SMALL
GASTEIGER

@<TRIPOS>ATOM
      1 C         140.8522  141.6390  160.3149 C.3     1  UNL1        0.0236
      2 C         140.5496  140.1959  160.0393 C.3     1  UNL1        0.0257
      3 C         141.0740  139.5441  158.7943 C.3     1  UNL1        0.0940
      4 N         141.9010  140.3354  157.8248 N.am    1  UNL1       -0.2760
      5 C         142.4255  139.6835  156.5797 C.2     1  UNL1        0.2498
      6 O         143.2525  140.4748  155.6102 O.2     1  UNL1       -0.2699
      7 C         142.2036  141.7785  158.1003 C.3     1  UNL1        0.0940
      8 C         141.6792  142.4303  159.3453 C.3     1  UNL1        0.0257
      9 C         140.8697  142.9677  161.0110 C.ar    1  UNL1       -0.0204
     10 C         139.6388  143.8248  161.0221 C.ar    1  UNL1       -0.0041
     11 C         139.6563  145.1534  161.7183 C.ar    1  UNL1        0.0020
     12 C         140.9048  145.6247  162.4033 C.ar    1  UNL1        0.0296
     13 C         142.1357  144.7675  162.3922 C.ar    1  UNL1        0.1398
     14 F         143.3840  145.2389  163.0772 F       1  UNL1       -0.2042
     15 C         142.1181  143.4389  161.6960 C.ar    1  UNL1        0.0254
     16 C         142.1229  138.2404  156.3043 C.ar    1  UNL1        0.0642
     17 C         143.0228  137.1689  156.8447 C.ar    1  UNL1        0.0067
     18 C         142.7201  135.7259  156.5692 C.ar    1  UNL1        0.0160
     19 C         141.5175  135.3543  155.7533 C.ar    1  UNL1        0.0653
     20 C         140.6175  136.4258  155.2129 C.ar    1  UNL1        0.0274
     21 C         140.9202  137.8688  155.4884 C.ar    1  UNL1        0.0633
     22 CL        140.0203  138.9403  154.9480 Cl      1  UNL1       -0.0821
     23 N         141.2148  133.9112  155.4778 N.pl3   1  UNL1       -0.2187
     24 H         140.2837  133.5917  155.4939 H       1  UNL1        0.1734
     25 S         142.3308  132.9548  155.1779 S.O2    1  UNL1        0.0558
     26 C         143.4467  131.9984  154.8781 C.3     1  UNL1        0.1996
     27 O         142.4744  133.5515  153.8093 O.2     1  UNL1       -0.1544
     28 O         142.1871  132.3580  156.5466 O.2     1  UNL1       -0.1544
     29 C         140.0313  141.3092  161.5261 C.3     1  UNL1        0.0215
     30 C         140.5653  140.3612  162.5587 C.3     1  UNL1        0.0723
     31 C         140.6285  140.2236  162.5172 C.3     1  UNL1        0.0893
     32 C         141.9665  140.8890  162.6488 C.3     1  UNL1        0.0386
     33 C         143.2205  140.1121  162.3766 C.3     1  UNL1        0.0594
     34 C         144.1594  138.9973  162.0223 C.3     1  UNL1        0.0174
     35 C         143.3385  137.7805  161.7133 C.3     1  UNL1        0.0174
     36 C         141.8922  138.1433  161.8765 C.3     1  UNL1        0.0594
     37 C         140.5447  138.7815  162.1135 C.3     1  UNL1        0.0386
     38 N         141.8192  139.5844  162.2866 N.3     1  UNL1       -0.2751
     39 C         138.0609  139.6016  161.2072 C.3     1  UNL1        0.0718
     40 C         138.0315  140.7522  162.1691 C.ar    1  UNL1        0.1207
     41 N         137.0704  141.7603  162.7260 N.ar    1  UNL1       -0.2309
     42 C         137.8194  142.6316  163.6902 C.ar    1  UNL1        0.0983
     43 C         137.3888  143.7919  164.5377 C.ar    1  UNL1        0.0206
     44 C         138.3822  144.4825  165.4242 C.ar    1  UNL1        0.0016
     45 C         139.8062  144.0129  165.4634 C.ar    1  UNL1        0.0016
     46 C         140.2369  142.8526  164.6160 C.ar    1  UNL1        0.0188
     47 C         139.2435  142.1620  163.7294 C.ar    1  UNL1        0.0785
     48 N         139.3745  141.0004  162.7893 N.ar    1  UNL1       -0.3167
@<TRIPOS>BOND
     1    39    40    1
     2    40    41   ar
     3    41    42   ar
     4    42    43   ar
     5    43    44   ar
     6    44    45   ar
     7    45    46   ar
     8    46    47   ar
     9    47    48   ar
    10    48    31    1
    11    31    32    1
    12    32    33    1
    13    33    34    1
    14    34    35    1
    15    35    36    1
    16    36    37    1
    17    36    38    1
    18    38    30    1
    19    30    29    1
    20    29     1    1
    21     1     9    1
    22     9    10   ar
    23    10    11   ar
    24    11    12   ar
    25    12    13   ar
    26    13    14    1
    27    13    15   ar
    28     1     2    1
    29     2     3    1
    30     3     4    1
    31     4     5   am
    32     5     6    2
    33     5    16    1
    34    16    17   ar
    35    17    18   ar
    36    18    19   ar
    37    19    23    1
    38    23    25    1
    39    25    26    1
    40    25    27    2
    41    25    28    2
    42    19    20   ar
    43    20    21   ar
    44    21    22    1
    45     4     7    1
    46     7     8    1
    47    48    40   ar
    48    37    31    1
    49     8     1    1
    50    47    42   ar
    51    38    33    1
    52    15     9   ar
    53    21    16   ar
    54    23    24    1
