@<TRIPOS>MOLECULE
*****
 22 23 0 0 0
SMALL
GASTEIGER

@<TRIPOS>ATOM
      1 C         138.4934  137.9320  162.4574 C.3     1  UNL1        0.0869
      2 O         140.0769  137.4962  164.4705 O.2     1  UNL1       -0.2751
      3 C         138.9057  138.2168  163.8712 C.2     1  UNL1        0.2229
      4 N         138.1468  139.2221  164.6857 N.am    1  UNL1       -0.2967
      5 H         137.3782  139.6950  164.2923 H       1  UNL1        0.1499
      6 C         138.5591  139.5069  166.0995 C.3     1  UNL1        0.1752
      7 C         139.6014  140.4951  166.5320 C.3     1  UNL1        0.0785
      8 C         139.6880  140.4524  168.0289 C.3     1  UNL1        0.2108
      9 O         138.6991  139.4378  168.5216 O.3     1  UNL1       -0.4473
     10 C         138.0014  138.8535  167.3292 C.2     1  UNL1        0.3351
     11 O         136.9336  137.8005  167.3609 O.2     1  UNL1       -0.2483
     12 C         137.7676  138.9769  161.6628 C.3     1  UNL1        0.0353
     13 C         138.4915  140.2083  161.2050 C.3     1  UNL1        0.1564
     14 S         138.6534  141.3730  162.1363 S.O2    1  UNL1        0.0087
     15 O         137.1898  141.3176  162.4600 O.2     1  UNL1       -0.1686
     16 O         140.1170  141.4284  161.8126 O.2     1  UNL1       -0.1686
     17 C         138.8152  142.5377  163.0676 C.ar    1  UNL1        0.1057
     18 C         140.1350  143.2440  163.1630 C.ar    1  UNL1        0.0183
     19 C         140.2968  144.4086  164.0943 C.ar    1  UNL1        0.0013
     20 C         139.1388  144.8670  164.9303 C.ar    1  UNL1        0.0001
     21 C         137.8189  144.1607  164.8349 C.ar    1  UNL1        0.0013
     22 C         137.6572  142.9960  163.9036 C.ar    1  UNL1        0.0183
@<TRIPOS>BOND
     1     2     3    2
     2     3     1    1
     3     1    12    1
     4    12    13    1
     5    13    14    1
     6    14    15    2
     7    14    16    2
     8    14    17    1
     9    17    18   ar
    10    18    19   ar
    11    19    20   ar
    12    20    21   ar
    13    21    22   ar
    14     3     4   am
    15     4     6    1
    16     6     7    1
    17     7     8    1
    18     8     9    1
    19     9    10    1
    20    10    11    2
    21    22    17   ar
    22    10     6    1
    23     4     5    1
@<TRIPOS>MOLECULE
*****
 22 23 0 0 0
SMALL
GASTEIGER

@<TRIPOS>ATOM
      1 C         139.0435  139.6917  167.5915 C.3     1  UNL1        0.0869
      2 O         140.3961  139.6886  169.8097 O.2     1  UNL1       -0.2751
      3 C         140.0492  140.3336  168.5006 C.2     1  UNL1        0.2229
      4 N         140.7081  141.6204  168.1006 N.am    1  UNL1       -0.2967
      5 H         140.4804  142.0437  167.2414 H       1  UNL1        0.1499
      6 C         141.7138  142.2623  169.0097 C.3     1  UNL1        0.1752
      7 C         143.1685  141.9090  169.1046 C.3     1  UNL1        0.0785
      8 C         143.7953  142.7985  170.1370 C.3     1  UNL1        0.2108
      9 O         142.7278  143.7015  170.6803 O.3     1  UNL1       -0.4473
     10 C         141.4415  143.3701  169.9836 C.2     1  UNL1        0.3351
     11 O         140.1155  144.0306  170.2194 O.2     1  UNL1       -0.2483
     12 C         139.1347  139.8967  166.1083 C.3     1  UNL1        0.0353
     13 C         140.1989  139.1943  165.3182 C.3     1  UNL1        0.1564
     14 S         141.5035  139.8807  165.0412 S.O2    1  UNL1        0.0087
     15 O         142.2099  138.5585  165.0916 O.2     1  UNL1       -0.1686
     16 O         140.7970  141.2030  164.9908 O.2     1  UNL1       -0.1686
     17 C         142.8081  140.5672  164.7641 C.ar    1  UNL1        0.1057
     18 C         143.9307  139.8115  164.1171 C.ar    1  UNL1        0.0183
     19 C         145.2353  140.4979  163.8400 C.ar    1  UNL1        0.0013
     20 C         145.4173  141.9402  164.2099 C.ar    1  UNL1        0.0001
     21 C         144.2947  142.6959  164.8569 C.ar    1  UNL1        0.0013
     22 C         142.9901  142.0095  165.1340 C.ar    1  UNL1        0.0183
@<TRIPOS>BOND
     1     2     3    2
     2     3     1    1
     3     1    12    1
     4    12    13    1
     5    13    14    1
     6    14    15    2
     7    14    16    2
     8    14    17    1
     9    17    18   ar
    10    18    19   ar
    11    19    20   ar
    12    20    21   ar
    13    21    22   ar
    14     3     4   am
    15     4     6    1
    16     6     7    1
    17     7     8    1
    18     8     9    1
    19     9    10    1
    20    10    11    2
    21    22    17   ar
    22    10     6    1
    23     4     5    1
@<TRIPOS>MOLECULE
*****
 22 23 0 0 0
SMALL
GASTEIGER

@<TRIPOS>ATOM
      1 C         142.7424  139.0247  166.9559 C.3     1  UNL1        0.0869
      2 O         143.1348  140.2151  169.2317 O.2     1  UNL1       -0.2751
      3 C         142.2761  139.9652  168.0274 C.2     1  UNL1        0.2229
      4 N         140.9513  140.6558  167.8946 N.am    1  UNL1       -0.2967
      5 H         140.3877  140.4918  167.1042 H       1  UNL1        0.1499
      6 C         140.4850  141.5963  168.9661 C.3     1  UNL1        0.1752
      7 C         140.7045  143.0799  168.9937 C.3     1  UNL1        0.0785
      8 C         140.0725  143.6188  170.2428 C.3     1  UNL1        0.2108
      9 O         139.4623  142.4683  170.9871 O.3     1  UNL1       -0.4473
     10 C         139.7173  141.2183  170.1981 C.2     1  UNL1        0.3351
     11 O         139.2811  139.8335  170.5749 O.2     1  UNL1       -0.2483
     12 C         141.9969  138.9387  165.6571 C.3     1  UNL1        0.0353
     13 C         142.1106  140.0466  164.6523 C.3     1  UNL1        0.1564
     14 S         141.0470  141.1015  164.5756 S.O2    1  UNL1        0.0087
     15 O         140.1251  140.1237  163.9094 O.2     1  UNL1       -0.1686
     16 O         141.9689  142.0793  165.2418 O.2     1  UNL1       -0.1686
     17 C         139.9834  142.1565  164.4989 C.ar    1  UNL1        0.1057
     18 C         140.0773  143.3802  165.3611 C.ar    1  UNL1        0.0183
     19 C         139.0137  144.4351  165.2844 C.ar    1  UNL1        0.0013
     20 C         137.8563  144.2663  164.3453 C.ar    1  UNL1        0.0001
     21 C         137.7624  143.0426  163.4830 C.ar    1  UNL1        0.0013
     22 C         138.8260  141.9877  163.5598 C.ar    1  UNL1        0.0183
@<TRIPOS>BOND
     1     2     3    2
     2     3     1    1
     3     1    12    1
     4    12    13    1
     5    13    14    1
     6    14    15    2
     7    14    16    2
     8    14    17    1
     9    17    18   ar
    10    18    19   ar
    11    19    20   ar
    12    20    21   ar
    13    21    22   ar
    14     3     4   am
    15     4     6    1
    16     6     7    1
    17     7     8    1
    18     8     9    1
    19     9    10    1
    20    10    11    2
    21    22    17   ar
    22    10     6    1
    23     4     5    1
@<TRIPOS>MOLECULE
*****
 22 23 0 0 0
SMALL
GASTEIGER

@<TRIPOS>ATOM
      1 C         144.3383  139.0401  164.3307 C.3     1  UNL1        0.0869
      2 O         145.8934  141.1159  164.1795 O.2     1  UNL1       -0.2751
      3 C         144.5261  140.5069  164.0796 C.2     1  UNL1        0.2229
      4 N         143.3468  141.3648  163.7286 N.am    1  UNL1       -0.2967
      5 H         142.4495  140.9651  163.6630 H       1  UNL1        0.1499
      6 C         143.5347  142.8317  163.4775 C.3     1  UNL1        0.1752
      7 C         143.0624  143.9455  164.3642 C.3     1  UNL1        0.0785
      8 C         143.4636  145.2445  163.7303 C.3     1  UNL1        0.2108
      9 O         144.1839  144.9334  162.4519 O.3     1  UNL1       -0.4473
     10 C         144.2278  143.4422  162.2957 C.2     1  UNL1        0.3351
     11 O         144.8548  142.6931  161.1574 O.2     1  UNL1       -0.2483
     12 C         143.9135  138.5596  165.6868 C.3     1  UNL1        0.0353
     13 C         142.5242  138.8371  166.1795 C.3     1  UNL1        0.1564
     14 S         142.2792  139.9668  167.1355 S.O2    1  UNL1        0.0087
     15 O         143.0395  139.2316  168.1991 O.2     1  UNL1       -0.1686
     16 O         141.5188  140.7019  166.0718 O.2     1  UNL1       -0.1686
     17 C         142.0341  141.0964  168.0915 C.ar    1  UNL1        0.1057
     18 C         140.7902  141.9257  167.9695 C.ar    1  UNL1        0.0183
     19 C         140.5452  143.0553  168.9255 C.ar    1  UNL1        0.0013
     20 C         141.5441  143.3556  170.0035 C.ar    1  UNL1        0.0001
     21 C         142.7880  142.5263  170.1254 C.ar    1  UNL1        0.0013
     22 C         143.0330  141.3967  169.1694 C.ar    1  UNL1        0.0183
@<TRIPOS>BOND
     1     2     3    2
     2     3     1    1
     3     1    12    1
     4    12    13    1
     5    13    14    1
     6    14    15    2
     7    14    16    2
     8    14    17    1
     9    17    18   ar
    10    18    19   ar
    11    19    20   ar
    12    20    21   ar
    13    21    22   ar
    14     3     4   am
    15     4     6    1
    16     6     7    1
    17     7     8    1
    18     8     9    1
    19     9    10    1
    20    10    11    2
    21    22    17   ar
    22    10     6    1
    23     4     5    1
@<TRIPOS>MOLECULE
*****
 22 23 0 0 0
SMALL
GASTEIGER

@<TRIPOS>ATOM
      1 C         138.2908  138.9504  166.5476 C.3     1  UNL1        0.0869
      2 O         138.7996  139.6831  168.9878 O.2     1  UNL1       -0.2751
      3 C         139.1853  139.6337  167.5390 C.2     1  UNL1        0.2229
      4 N         140.4656  140.2676  167.0818 N.am    1  UNL1       -0.2967
      5 H         140.7187  140.2351  166.1309 H       1  UNL1        0.1499
      6 C         141.3601  140.9509  168.0732 C.3     1  UNL1        0.1752
      7 C         141.2472  142.3762  168.5267 C.3     1  UNL1        0.0785
      8 C         142.3419  142.6350  169.5190 C.3     1  UNL1        0.2108
      9 O         143.1315  141.3697  169.6787 O.3     1  UNL1       -0.4473
     10 C         142.5246  140.3288  168.7851 C.2     1  UNL1        0.3351
     11 O         142.9991  138.9142  168.6307 O.2     1  UNL1       -0.2483
     12 C         138.8737  138.3399  165.3076 C.3     1  UNL1        0.0353
     13 C         138.7078  139.0264  163.9843 C.3     1  UNL1        0.1564
     14 S         138.8168  140.5198  163.8953 S.O2    1  UNL1        0.0087
     15 O         140.2784  140.4326  164.2208 O.2     1  UNL1       -0.1686
     16 O         137.3551  140.6070  163.5698 O.2     1  UNL1       -0.1686
     17 C         138.9257  142.0132  163.8063 C.ar    1  UNL1        0.1057
     18 C         137.8361  142.8068  163.1484 C.ar    1  UNL1        0.0183
     19 C         137.9451  144.3002  163.0594 C.ar    1  UNL1        0.0013
     20 C         139.1438  144.9999  163.6283 C.ar    1  UNL1        0.0001
     21 C         140.2334  144.2063  164.2861 C.ar    1  UNL1        0.0013
     22 C         140.1244  142.7130  164.3752 C.ar    1  UNL1        0.0183
@<TRIPOS>BOND
     1     2     3    2
     2     3     1    1
     3     1    12    1
     4    12    13    1
     5    13    14    1
     6    14    15    2
     7    14    16    2
     8    14    17    1
     9    17    18   ar
    10    18    19   ar
    11    19    20   ar
    12    20    21   ar
    13    21    22   ar
    14     3     4   am
    15     4     6    1
    16     6     7    1
    17     7     8    1
    18     8     9    1
    19     9    10    1
    20    10    11    2
    21    22    17   ar
    22    10     6    1
    23     4     5    1
@<TRIPOS>MOLECULE
*****
 22 23 0 0 0
SMALL
GASTEIGER

@<TRIPOS>ATOM
      1 C         139.0115  139.9310  167.2193 C.3     1  UNL1        0.0869
      2 O         140.3386  139.6815  169.4390 O.2     1  UNL1       -0.2751
      3 C         139.9959  140.4740  168.2123 C.2     1  UNL1        0.2229
      4 N         140.6378  141.8095  167.9787 N.am    1  UNL1       -0.2967
      5 H         140.4129  142.3296  167.1737 H       1  UNL1        0.1499
      6 C         141.6222  142.3525  168.9717 C.3     1  UNL1        0.1752
      7 C         143.0650  141.9591  169.0883 C.3     1  UNL1        0.0785
      8 C         143.6712  142.7477  170.2111 C.3     1  UNL1        0.2108
      9 O         142.6031  143.6284  170.7885 O.3     1  UNL1       -0.4473
     10 C         141.3367  143.3841  170.0225 C.2     1  UNL1        0.3351
     11 O         140.0166  144.0540  170.2647 O.2     1  UNL1       -0.2483
     12 C         139.3862  139.8295  165.7704 C.3     1  UNL1        0.0353
     13 C         139.1914  141.0064  164.8611 C.3     1  UNL1        0.1564
     14 S         140.3037  141.9928  164.6621 S.O2    1  UNL1        0.0087
     15 O         139.4941  143.0463  165.3583 O.2     1  UNL1       -0.1686
     16 O         141.1134  140.9394  163.9660 O.2     1  UNL1       -0.1686
     17 C         141.4161  142.9793  164.4632 C.ar    1  UNL1        0.1057
     18 C         142.8102  142.6351  164.8967 C.ar    1  UNL1        0.0183
     19 C         143.9226  143.6215  164.6978 C.ar    1  UNL1        0.0013
     20 C         143.6408  144.9522  164.0654 C.ar    1  UNL1        0.0001
     21 C         142.2467  145.2964  163.6319 C.ar    1  UNL1        0.0013
     22 C         141.1344  144.3100  163.8308 C.ar    1  UNL1        0.0183
@<TRIPOS>BOND
     1     2     3    2
     2     3     1    1
     3     1    12    1
     4    12    13    1
     5    13    14    1
     6    14    15    2
     7    14    16    2
     8    14    17    1
     9    17    18   ar
    10    18    19   ar
    11    19    20   ar
    12    20    21   ar
    13    21    22   ar
    14     3     4   am
    15     4     6    1
    16     6     7    1
    17     7     8    1
    18     8     9    1
    19     9    10    1
    20    10    11    2
    21    22    17   ar
    22    10     6    1
    23     4     5    1
@<TRIPOS>MOLECULE
*****
 22 23 0 0 0
SMALL
GASTEIGER

@<TRIPOS>ATOM
      1 C         143.3190  138.7350  166.7865 C.3     1  UNL1        0.0869
      2 O         142.8942  139.1414  169.3172 O.2     1  UNL1       -0.2751
      3 C         142.6018  139.4664  167.8823 C.2     1  UNL1        0.2229
      4 N         141.5923  140.5227  167.5432 N.am    1  UNL1       -0.2967
      5 H         141.4004  140.7360  166.6014 H       1  UNL1        0.1499
      6 C         140.8751  141.2541  168.6390 C.3     1  UNL1        0.1752
      7 C         141.2884  142.5638  169.2422 C.3     1  UNL1        0.0785
      8 C         140.2874  142.9233  170.3000 C.3     1  UNL1        0.2108
      9 O         139.2556  141.8358  170.3506 O.3     1  UNL1       -0.4473
     10 C         139.6188  140.8042  169.3240 C.2     1  UNL1        0.3351
     11 O         138.8591  139.5439  169.0335 O.2     1  UNL1       -0.2483
     12 C         142.6003  138.3999  165.5131 C.3     1  UNL1        0.0353
     13 C         143.0101  139.0530  164.2265 C.3     1  UNL1        0.1564
     14 S         143.1506  140.5446  164.1540 S.O2    1  UNL1        0.0087
     15 O         144.6191  140.3934  163.8881 O.2     1  UNL1       -0.1686
     16 O         141.6822  140.6959  164.4199 O.2     1  UNL1       -0.1686
     17 C         143.2912  142.0363  164.0815 C.ar    1  UNL1        0.1057
     18 C         142.5517  142.8091  163.0300 C.ar    1  UNL1        0.0183
     19 C         142.6923  144.3007  162.9575 C.ar    1  UNL1        0.0013
     20 C         143.5724  145.0195  163.9367 C.ar    1  UNL1        0.0001
     21 C         144.3119  144.2467  164.9883 C.ar    1  UNL1        0.0013
     22 C         144.1713  142.7551  165.0607 C.ar    1  UNL1        0.0183
@<TRIPOS>BOND
     1     2     3    2
     2     3     1    1
     3     1    12    1
     4    12    13    1
     5    13    14    1
     6    14    15    2
     7    14    16    2
     8    14    17    1
     9    17    18   ar
    10    18    19   ar
    11    19    20   ar
    12    20    21   ar
    13    21    22   ar
    14     3     4   am
    15     4     6    1
    16     6     7    1
    17     7     8    1
    18     8     9    1
    19     9    10    1
    20    10    11    2
    21    22    17   ar
    22    10     6    1
    23     4     5    1
@<TRIPOS>MOLECULE
*****
 22 23 0 0 0
SMALL
GASTEIGER

@<TRIPOS>ATOM
      1 C         143.6377  142.5464  166.1622 C.3     1  UNL1        0.0869
      2 O         143.6667  142.6256  168.7589 O.2     1  UNL1       -0.2751
      3 C         142.9052  142.5196  167.4709 C.2     1  UNL1        0.2229
      4 N         141.4113  142.3869  167.4916 N.am    1  UNL1       -0.2967
      5 H         140.9115  142.3173  166.6463 H       1  UNL1        0.1499
      6 C         140.6788  142.3601  168.8004 C.3     1  UNL1        0.1752
      7 C         140.3773  143.5471  169.6665 C.3     1  UNL1        0.0785
      8 C         139.6314  143.0622  170.8742 C.3     1  UNL1        0.2108
      9 O         139.4717  141.5756  170.7544 O.3     1  UNL1       -0.4473
     10 C         140.1191  141.1417  169.4727 C.2     1  UNL1        0.3351
     11 O         140.1936  139.7360  168.9545 O.2     1  UNL1       -0.2483
     12 C         142.9040  142.8870  164.8989 C.3     1  UNL1        0.0353
     13 C         142.4519  141.7941  163.9763 C.3     1  UNL1        0.1564
     14 S         141.4141  140.8109  164.4301 S.O2    1  UNL1        0.0087
     15 O         140.4407  141.9334  164.6360 O.2     1  UNL1       -0.1686
     16 O         142.3875  139.6884  164.2243 O.2     1  UNL1       -0.1686
     17 C         140.3761  139.8277  164.8840 C.ar    1  UNL1        0.1057
     18 C         139.1820  140.3015  165.6584 C.ar    1  UNL1        0.0183
     19 C         138.1442  139.3182  166.1122 C.ar    1  UNL1        0.0013
     20 C         138.3004  137.8612  165.7917 C.ar    1  UNL1        0.0001
     21 C         139.4944  137.3874  165.0174 C.ar    1  UNL1        0.0013
     22 C         140.5323  138.3707  164.5635 C.ar    1  UNL1        0.0183
@<TRIPOS>BOND
     1     2     3    2
     2     3     1    1
     3     1    12    1
     4    12    13    1
     5    13    14    1
     6    14    15    2
     7    14    16    2
     8    14    17    1
     9    17    18   ar
    10    18    19   ar
    11    19    20   ar
    12    20    21   ar
    13    21    22   ar
    14     3     4   am
    15     4     6    1
    16     6     7    1
    17     7     8    1
    18     8     9    1
    19     9    10    1
    20    10    11    2
    21    22    17   ar
    22    10     6    1
    23     4     5    1
@<TRIPOS>MOLECULE
*****
 22 23 0 0 0
SMALL
GASTEIGER

@<TRIPOS>ATOM
      1 C         141.1017  137.2444  163.8347 C.3     1  UNL1        0.0869
      2 O         142.9274  138.0431  162.1676 O.2     1  UNL1       -0.2751
      3 C         142.1697  138.2246  163.4495 C.2     1  UNL1        0.2229
      4 N         142.4802  139.3864  164.3460 N.am    1  UNL1       -0.2967
      5 H         141.9829  139.5056  165.1873 H       1  UNL1        0.1499
      6 C         143.5482  140.3667  163.9608 C.3     1  UNL1        0.1752
      7 C         145.0207  140.2038  164.1956 C.3     1  UNL1        0.0785
      8 C         145.7138  141.4184  163.6531 C.3     1  UNL1        0.2108
      9 O         144.6696  142.3319  163.0829 O.3     1  UNL1       -0.4473
     10 C         143.3312  141.6819  163.2731 C.2     1  UNL1        0.3351
     11 O         142.0082  142.2479  162.8498 O.2     1  UNL1       -0.2483
     12 C         139.9938  137.6652  164.7542 C.3     1  UNL1        0.0353
     13 C         138.8612  138.4983  164.2317 C.3     1  UNL1        0.1564
     14 S         138.8440  139.9782  164.4756 S.O2    1  UNL1        0.0087
     15 O         137.9140  140.1591  163.3126 O.2     1  UNL1       -0.1686
     16 O         139.7739  139.7974  165.6385 O.2     1  UNL1       -0.1686
     17 C         138.8267  141.4582  164.7194 C.ar    1  UNL1        0.1057
     18 C         139.8415  142.0797  165.6326 C.ar    1  UNL1        0.0183
     19 C         139.8243  143.5597  165.8764 C.ar    1  UNL1        0.0013
     20 C         138.7922  144.4181  165.2070 C.ar    1  UNL1        0.0001
     21 C         137.7775  143.7966  164.2939 C.ar    1  UNL1        0.0013
     22 C         137.7947  142.3167  164.0501 C.ar    1  UNL1        0.0183
@<TRIPOS>BOND
     1     2     3    2
     2     3     1    1
     3     1    12    1
     4    12    13    1
     5    13    14    1
     6    14    15    2
     7    14    16    2
     8    14    17    1
     9    17    18   ar
    10    18    19   ar
    11    19    20   ar
    12    20    21   ar
    13    21    22   ar
    14     3     4   am
    15     4     6    1
    16     6     7    1
    17     7     8    1
    18     8     9    1
    19     9    10    1
    20    10    11    2
    21    22    17   ar
    22    10     6    1
    23     4     5    1
