@<TRIPOS>MOLECULE
*****
 29 32 0 0 0
SMALL
GASTEIGER

@<TRIPOS>ATOM
      1 C         141.6199  140.2128  167.1778 C.ar    1  UNL1        0.0832
      2 C         141.6187  140.0001  168.6626 C.ar    1  UNL1        0.0125
      3 C         140.6761  140.6326  169.6431 C.3     1  UNL1        0.0340
      4 C         142.7257  139.0439  168.9949 C.ar    1  UNL1        0.0924
      5 N         143.4110  138.6655  167.7153 N.ar    1  UNL1       -0.1671
      6 N         142.7276  139.3880  166.5923 N.ar    1  UNL1       -0.2119
      7 C         143.0886  139.3008  165.1390 C.ar    1  UNL1        0.1743
      8 N         144.1531  140.1950  164.5757 N.ar    1  UNL1       -0.2234
      9 C         144.5141  140.1079  163.1224 C.ar    1  UNL1        0.1120
     10 C         143.8106  139.1266  162.2324 C.ar    1  UNL1        0.0777
     11 CL        144.1716  139.0395  160.7791 Cl      1  UNL1       -0.0806
     12 C         142.7461  138.2325  162.7957 C.ar    1  UNL1        0.0275
     13 C         142.3851  138.3196  164.2490 C.ar    1  UNL1        0.0943
     14 CL        141.3206  137.4254  164.8122 Cl      1  UNL1       -0.0790
     15 C         137.8552  143.7428  164.1175 C.3     1  UNL1        0.0521
     16 C         138.7964  142.8603  164.8826 C.ar    1  UNL1        0.0594
     17 C         138.5467  141.3831  164.9562 C.ar    1  UNL1        0.0148
     18 C         139.4879  140.5006  165.7213 C.ar    1  UNL1        0.0042
     19 C         140.6787  141.0953  166.4127 C.ar    1  UNL1        0.0366
     20 C         140.9284  142.5725  166.3391 C.ar    1  UNL1        0.0999
     21 N         139.9872  143.4550  165.5740 N.ar    1  UNL1       -0.2481
     22 C         143.0842  138.5523  170.3659 C.3     1  UNL1        0.1166
     23 N         143.2453  137.0823  170.6172 N.3     1  UNL1       -0.2935
     24 H         143.2941  136.6310  169.7038 H       1  UNL1        0.1236
     25 C         144.4152  136.5809  171.4110 C.3     1  UNL1        0.0543
     26 C         145.4880  137.4268  172.0303 C.3     1  UNL1        0.0157
     27 C         146.4535  136.5142  172.7268 C.3     1  UNL1        0.0014
     28 C         145.9774  135.1044  172.5380 C.3     1  UNL1        0.0014
     29 C         144.7175  135.1456  171.7247 C.3     1  UNL1        0.0157
@<TRIPOS>BOND
     1    15    16    1
     2    16    17   ar
     3    17    18   ar
     4    18    19   ar
     5    19     1    1
     6     1     2   ar
     7     2     3    1
     8     2     4   ar
     9     4    22    1
    10    22    23    1
    11    23    25    1
    12    25    26    1
    13    26    27    1
    14    27    28    1
    15    28    29    1
    16     4     5   ar
    17     5     6   ar
    18     6     7    1
    19     7     8   ar
    20     8     9   ar
    21     9    10   ar
    22    10    11    1
    23    10    12   ar
    24    12    13   ar
    25    13    14    1
    26    19    20   ar
    27    20    21   ar
    28    21    16   ar
    29     6     1   ar
    30    13     7   ar
    31    29    25    1
    32    23    24    1
@<TRIPOS>MOLECULE
*****
 29 32 0 0 0
SMALL
GASTEIGER

@<TRIPOS>ATOM
      1 C         142.2018  139.3755  165.7355 C.ar    1  UNL1        0.0832
      2 C         142.8939  138.8426  166.9549 C.ar    1  UNL1        0.0125
      3 C         143.9228  137.7514  166.9787 C.3     1  UNL1        0.0340
      4 C         142.3764  139.5926  168.1465 C.ar    1  UNL1        0.0924
      5 N         141.3645  140.5890  167.6635 N.ar    1  UNL1       -0.1671
      6 N         141.2566  140.4547  166.1734 N.ar    1  UNL1       -0.2119
      7 C         140.3608  141.2587  165.2783 C.ar    1  UNL1        0.1743
      8 N         140.8985  142.4645  164.5662 N.ar    1  UNL1       -0.2234
      9 C         140.0027  143.2685  163.6712 C.ar    1  UNL1        0.1120
     10 C         138.5691  142.8667  163.4882 C.ar    1  UNL1        0.0777
     11 CL        137.6733  143.6707  162.5932 Cl      1  UNL1       -0.0806
     12 C         138.0314  141.6610  164.2002 C.ar    1  UNL1        0.0275
     13 C         138.9273  140.8570  165.0953 C.ar    1  UNL1        0.0943
     14 CL        138.3895  139.6512  165.8073 Cl      1  UNL1       -0.0790
     15 C         143.0630  137.5161  160.0962 C.3     1  UNL1        0.0521
     16 C         142.8477  137.9810  161.5060 C.ar    1  UNL1        0.0594
     17 C         141.5761  137.6368  162.2233 C.ar    1  UNL1        0.0148
     18 C         141.3608  138.1016  163.6331 C.ar    1  UNL1        0.0042
     19 C         142.4171  138.9106  164.3256 C.ar    1  UNL1        0.0366
     20 C         143.6887  139.2548  163.6084 C.ar    1  UNL1        0.0999
     21 N         143.9040  138.7899  162.1986 N.ar    1  UNL1       -0.2481
     22 C         142.7971  139.3830  169.5710 C.3     1  UNL1        0.1166
     23 N         142.9057  140.5548  170.5010 N.3     1  UNL1       -0.2935
     24 H         143.8166  140.9815  170.3320 H       1  UNL1        0.1236
     25 C         141.8921  141.6587  170.4381 C.3     1  UNL1        0.0543
     26 C         140.4669  141.5745  170.8983 C.3     1  UNL1        0.0157
     27 C         139.8198  142.9044  170.6485 C.3     1  UNL1        0.0014
     28 C         140.8450  143.8107  170.0339 C.3     1  UNL1        0.0014
     29 C         142.1258  143.0408  169.9039 C.3     1  UNL1        0.0157
@<TRIPOS>BOND
     1    15    16    1
     2    16    17   ar
     3    17    18   ar
     4    18    19   ar
     5    19     1    1
     6     1     2   ar
     7     2     3    1
     8     2     4   ar
     9     4    22    1
    10    22    23    1
    11    23    25    1
    12    25    26    1
    13    26    27    1
    14    27    28    1
    15    28    29    1
    16     4     5   ar
    17     5     6   ar
    18     6     7    1
    19     7     8   ar
    20     8     9   ar
    21     9    10   ar
    22    10    11    1
    23    10    12   ar
    24    12    13   ar
    25    13    14    1
    26    19    20   ar
    27    20    21   ar
    28    21    16   ar
    29     6     1   ar
    30    13     7   ar
    31    29    25    1
    32    23    24    1
@<TRIPOS>MOLECULE
*****
 29 32 0 0 0
SMALL
GASTEIGER

@<TRIPOS>ATOM
      1 C         139.9681  139.6442  165.9816 C.ar    1  UNL1        0.0832
      2 C         139.0024  139.4407  167.1112 C.ar    1  UNL1        0.0125
      3 C         137.6314  138.8420  167.0020 C.3     1  UNL1        0.0340
      4 C         139.6482  139.9412  168.3691 C.ar    1  UNL1        0.0924
      5 N         141.0132  140.4539  168.0170 N.ar    1  UNL1       -0.1671
      6 N         141.2109  140.2704  166.5415 N.ar    1  UNL1       -0.2119
      7 C         142.4362  140.6469  165.7625 C.ar    1  UNL1        0.1743
      8 N         142.6747  142.0792  165.3857 N.ar    1  UNL1       -0.2234
      9 C         143.9001  142.4557  164.6068 C.ar    1  UNL1        0.1120
     10 C         144.8869  141.4001  164.2047 C.ar    1  UNL1        0.0777
     11 CL        146.1123  141.7766  163.4257 Cl      1  UNL1       -0.0806
     12 C         144.6485  139.9679  164.5815 C.ar    1  UNL1        0.0275
     13 C         143.4231  139.5914  165.3604 C.ar    1  UNL1        0.0943
     14 CL        143.1847  138.1591  165.7372 Cl      1  UNL1       -0.0790
     15 C         139.0256  138.2058  160.2334 C.3     1  UNL1        0.0521
     16 C         139.2612  138.5654  161.6704 C.ar    1  UNL1        0.0594
     17 C         139.6975  137.5122  162.6453 C.ar    1  UNL1        0.0148
     18 C         139.9331  137.8718  164.0823 C.ar    1  UNL1        0.0042
     19 C         139.7325  139.2846  164.5446 C.ar    1  UNL1        0.0366
     20 C         139.2962  140.3378  163.5697 C.ar    1  UNL1        0.0999
     21 N         139.0606  139.9782  162.1326 N.ar    1  UNL1       -0.2481
     22 C         139.0365  139.9307  169.7387 C.3     1  UNL1        0.1166
     23 N         139.7746  140.5386  170.8944 N.3     1  UNL1       -0.2935
     24 H         140.4273  139.8311  171.2319 H       1  UNL1        0.1236
     25 C         140.5645  141.7989  170.7004 C.3     1  UNL1        0.0543
     26 C         140.0174  143.1224  170.2542 C.3     1  UNL1        0.0157
     27 C         141.1549  144.0985  170.1966 C.3     1  UNL1        0.0014
     28 C         142.4050  143.3784  170.6072 C.3     1  UNL1        0.0014
     29 C         142.0401  141.9571  170.9186 C.3     1  UNL1        0.0157
@<TRIPOS>BOND
     1    15    16    1
     2    16    17   ar
     3    17    18   ar
     4    18    19   ar
     5    19     1    1
     6     1     2   ar
     7     2     3    1
     8     2     4   ar
     9     4    22    1
    10    22    23    1
    11    23    25    1
    12    25    26    1
    13    26    27    1
    14    27    28    1
    15    28    29    1
    16     4     5   ar
    17     5     6   ar
    18     6     7    1
    19     7     8   ar
    20     8     9   ar
    21     9    10   ar
    22    10    11    1
    23    10    12   ar
    24    12    13   ar
    25    13    14    1
    26    19    20   ar
    27    20    21   ar
    28    21    16   ar
    29     6     1   ar
    30    13     7   ar
    31    29    25    1
    32    23    24    1
@<TRIPOS>MOLECULE
*****
 29 32 0 0 0
SMALL
GASTEIGER

@<TRIPOS>ATOM
      1 C         139.2556  140.4193  165.8430 C.ar    1  UNL1        0.0832
      2 C         138.7478  139.7168  167.0671 C.ar    1  UNL1        0.0125
      3 C         137.6505  138.6949  167.1058 C.3     1  UNL1        0.0340
      4 C         139.5301  140.2156  168.2459 C.ar    1  UNL1        0.0924
      5 N         140.5213  141.2264  167.7502 N.ar    1  UNL1       -0.1671
      6 N         140.3516  141.3523  166.2651 N.ar    1  UNL1       -0.2119
      7 C         141.1397  142.2531  165.3610 C.ar    1  UNL1        0.1743
      8 N         142.4479  141.7877  164.7932 N.ar    1  UNL1       -0.2234
      9 C         143.2360  142.6885  163.8891 C.ar    1  UNL1        0.1120
     10 C         142.7160  144.0547  163.5526 C.ar    1  UNL1        0.0777
     11 CL        143.5041  144.9554  162.6485 Cl      1  UNL1       -0.0806
     12 C         141.4079  144.5200  164.1203 C.ar    1  UNL1        0.0275
     13 C         140.6198  143.6192  165.0245 C.ar    1  UNL1        0.0943
     14 CL        139.3117  144.0847  165.5922 Cl      1  UNL1       -0.0790
     15 C         137.2540  139.6352  160.2413 C.3     1  UNL1        0.0521
     16 C         137.7544  139.8313  161.6417 C.ar    1  UNL1        0.0594
     17 C         138.6379  138.7971  162.2741 C.ar    1  UNL1        0.0148
     18 C         139.1383  138.9932  163.6745 C.ar    1  UNL1        0.0042
     19 C         138.7552  140.2233  164.4425 C.ar    1  UNL1        0.0366
     20 C         137.8717  141.2574  163.8102 C.ar    1  UNL1        0.0999
     21 N         137.3713  141.0614  162.4097 N.ar    1  UNL1       -0.2481
     22 C         139.3522  139.7800  169.6702 C.3     1  UNL1        0.1166
     23 N         140.5295  139.7553  170.5994 N.3     1  UNL1       -0.2935
     24 H         140.9865  138.8524  170.4717 H       1  UNL1        0.1236
     25 C         141.5980  140.8016  170.4841 C.3     1  UNL1        0.0543
     26 C         142.9855  140.5903  169.9546 C.3     1  UNL1        0.0157
     27 C         143.7117  141.9011  170.0213 C.3     1  UNL1        0.0014
     28 C         142.7731  142.9226  170.5919 C.3     1  UNL1        0.0014
     29 C         141.4667  142.2431  170.8779 C.3     1  UNL1        0.0157
@<TRIPOS>BOND
     1    15    16    1
     2    16    17   ar
     3    17    18   ar
     4    18    19   ar
     5    19     1    1
     6     1     2   ar
     7     2     3    1
     8     2     4   ar
     9     4    22    1
    10    22    23    1
    11    23    25    1
    12    25    26    1
    13    26    27    1
    14    27    28    1
    15    28    29    1
    16     4     5   ar
    17     5     6   ar
    18     6     7    1
    19     7     8   ar
    20     8     9   ar
    21     9    10   ar
    22    10    11    1
    23    10    12   ar
    24    12    13   ar
    25    13    14    1
    26    19    20   ar
    27    20    21   ar
    28    21    16   ar
    29     6     1   ar
    30    13     7   ar
    31    29    25    1
    32    23    24    1
@<TRIPOS>MOLECULE
*****
 29 32 0 0 0
SMALL
GASTEIGER

@<TRIPOS>ATOM
      1 C         139.0823  139.7966  166.6244 C.ar    1  UNL1        0.0832
      2 C         138.3285  139.2247  167.7883 C.ar    1  UNL1        0.0125
      3 C         137.2555  138.1791  167.7159 C.3     1  UNL1        0.0340
      4 C         138.8362  139.8819  169.0375 C.ar    1  UNL1        0.0924
      5 N         139.9037  140.8601  168.6455 N.ar    1  UNL1       -0.1671
      6 N         140.0558  140.8073  167.1542 N.ar    1  UNL1       -0.2119
      7 C         141.0133  141.6223  166.3363 C.ar    1  UNL1        0.1743
      8 N         140.5444  142.8782  165.6631 N.ar    1  UNL1       -0.2234
      9 C         141.5019  143.6931  164.8452 C.ar    1  UNL1        0.1120
     10 C         142.9283  143.2523  164.7003 C.ar    1  UNL1        0.0777
     11 CL        143.8858  144.0672  163.8824 Cl      1  UNL1       -0.0806
     12 C         143.3972  141.9964  165.3734 C.ar    1  UNL1        0.0275
     13 C         142.4397  141.1815  166.1914 C.ar    1  UNL1        0.0943
     14 CL        142.9087  139.9256  166.8644 Cl      1  UNL1       -0.0790
     15 C         138.3345  138.3036  160.8614 C.3     1  UNL1        0.0521
     16 C         138.5214  138.6769  162.3022 C.ar    1  UNL1        0.0594
     17 C         139.2664  137.7580  163.2244 C.ar    1  UNL1        0.0148
     18 C         139.4534  138.1312  164.6651 C.ar    1  UNL1        0.0042
     19 C         138.8953  139.4234  165.1836 C.ar    1  UNL1        0.0366
     20 C         138.1504  140.3423  164.2614 C.ar    1  UNL1        0.0999
     21 N         137.9634  139.9690  162.8207 N.ar    1  UNL1       -0.2481
     22 C         138.3599  139.6089  170.4334 C.3     1  UNL1        0.1166
     23 N         136.8937  139.4531  170.7085 N.3     1  UNL1       -0.2935
     24 H         136.4455  139.2562  169.8137 H       1  UNL1        0.1236
     25 C         136.4184  138.4052  171.6708 C.3     1  UNL1        0.0543
     26 C         137.1757  137.1775  172.0823 C.3     1  UNL1        0.0157
     27 C         136.3276  136.4146  173.0564 C.3     1  UNL1        0.0014
     28 C         135.0462  137.1706  173.2468 C.3     1  UNL1        0.0014
     29 C         135.1023  138.4010  172.3905 C.3     1  UNL1        0.0157
@<TRIPOS>BOND
     1    15    16    1
     2    16    17   ar
     3    17    18   ar
     4    18    19   ar
     5    19     1    1
     6     1     2   ar
     7     2     3    1
     8     2     4   ar
     9     4    22    1
    10    22    23    1
    11    23    25    1
    12    25    26    1
    13    26    27    1
    14    27    28    1
    15    28    29    1
    16     4     5   ar
    17     5     6   ar
    18     6     7    1
    19     7     8   ar
    20     8     9   ar
    21     9    10   ar
    22    10    11    1
    23    10    12   ar
    24    12    13   ar
    25    13    14    1
    26    19    20   ar
    27    20    21   ar
    28    21    16   ar
    29     6     1   ar
    30    13     7   ar
    31    29    25    1
    32    23    24    1
@<TRIPOS>MOLECULE
*****
 29 32 0 0 0
SMALL
GASTEIGER

@<TRIPOS>ATOM
      1 C         141.8615  142.6294  164.6821 C.ar    1  UNL1        0.0832
      2 C         142.4904  143.6278  163.7560 C.ar    1  UNL1        0.0125
      3 C         143.3371  144.7970  164.1634 C.3     1  UNL1        0.0340
      4 C         142.1239  143.2518  162.3509 C.ar    1  UNL1        0.0924
      5 N         141.2685  142.0209  162.4086 N.ar    1  UNL1       -0.1671
      6 N         141.1063  141.6363  163.8493 N.ar    1  UNL1       -0.2119
      7 C         140.3260  140.4643  164.3665 C.ar    1  UNL1        0.1743
      8 N         140.9739  139.1146  164.4609 N.ar    1  UNL1       -0.2234
      9 C         140.1935  137.9426  164.9781 C.ar    1  UNL1        0.1120
     10 C         138.7653  138.1202  165.4008 C.ar    1  UNL1        0.0777
     11 CL        137.9850  136.9482  165.9180 Cl      1  UNL1       -0.0806
     12 C         138.1175  139.4698  165.3063 C.ar    1  UNL1        0.0275
     13 C         138.8978  140.6418  164.7892 C.ar    1  UNL1        0.0943
     14 CL        138.2499  141.9913  164.6948 Cl      1  UNL1       -0.0790
     15 C         142.2911  142.6112  170.6666 C.3     1  UNL1        0.0521
     16 C         142.1837  142.6158  169.1705 C.ar    1  UNL1        0.0594
     17 C         140.8468  142.7974  168.5151 C.ar    1  UNL1        0.0148
     18 C         140.7394  142.8019  167.0190 C.ar    1  UNL1        0.0042
     19 C         141.9689  142.6248  166.1782 C.ar    1  UNL1        0.0366
     20 C         143.3058  142.4433  166.8336 C.ar    1  UNL1        0.0999
     21 N         143.4132  142.4387  168.3298 N.ar    1  UNL1       -0.2481
     22 C         142.5398  143.9789  161.1066 C.3     1  UNL1        0.1166
     23 N         141.6696  145.0645  160.5460 N.3     1  UNL1       -0.2935
     24 H         142.2672  145.8796  160.4089 H       1  UNL1        0.1236
     25 C         140.9337  144.8454  159.2574 C.3     1  UNL1        0.0543
     26 C         140.9418  145.7626  158.0705 C.3     1  UNL1        0.0157
     27 C         140.0736  145.1546  157.0091 C.3     1  UNL1        0.0014
     28 C         139.5289  143.8618  157.5399 C.3     1  UNL1        0.0014
     29 C         140.0605  143.6706  158.9296 C.3     1  UNL1        0.0157
@<TRIPOS>BOND
     1    15    16    1
     2    16    17   ar
     3    17    18   ar
     4    18    19   ar
     5    19     1    1
     6     1     2   ar
     7     2     3    1
     8     2     4   ar
     9     4    22    1
    10    22    23    1
    11    23    25    1
    12    25    26    1
    13    26    27    1
    14    27    28    1
    15    28    29    1
    16     4     5   ar
    17     5     6   ar
    18     6     7    1
    19     7     8   ar
    20     8     9   ar
    21     9    10   ar
    22    10    11    1
    23    10    12   ar
    24    12    13   ar
    25    13    14    1
    26    19    20   ar
    27    20    21   ar
    28    21    16   ar
    29     6     1   ar
    30    13     7   ar
    31    29    25    1
    32    23    24    1
@<TRIPOS>MOLECULE
*****
 29 32 0 0 0
SMALL
GASTEIGER

@<TRIPOS>ATOM
      1 C         142.4734  140.4568  164.8346 C.ar    1  UNL1        0.0832
      2 C         142.8359  139.6044  166.0144 C.ar    1  UNL1        0.0125
      3 C         143.4396  138.2324  165.9587 C.3     1  UNL1        0.0340
      4 C         142.4885  140.3648  167.2599 C.ar    1  UNL1        0.0924
      5 N         141.9114  141.6872  166.8498 N.ar    1  UNL1       -0.1671
      6 N         141.9021  141.7441  165.3509 N.ar    1  UNL1       -0.2119
      7 C         141.4081  142.8875  164.5150 C.ar    1  UNL1        0.1743
      8 N         139.9805  142.9187  164.0555 N.ar    1  UNL1       -0.2234
      9 C         139.4866  144.0621  163.2196 C.ar    1  UNL1        0.1120
     10 C         140.4201  145.1743  162.8433 C.ar    1  UNL1        0.0777
     11 CL        139.9262  146.3177  162.0075 Cl      1  UNL1       -0.0806
     12 C         141.8476  145.1430  163.3029 C.ar    1  UNL1        0.0275
     13 C         142.3416  143.9996  164.1387 C.ar    1  UNL1        0.0943
     14 CL        143.7692  143.9684  164.5983 Cl      1  UNL1       -0.0790
     15 C         143.1843  138.9773  159.0635 C.3     1  UNL1        0.0521
     16 C         143.0066  139.3472  160.5063 C.ar    1  UNL1        0.0594
     17 C         141.6752  139.1575  161.1707 C.ar    1  UNL1        0.0148
     18 C         141.4975  139.5274  162.6134 C.ar    1  UNL1        0.0042
     19 C         142.6512  140.0870  163.3918 C.ar    1  UNL1        0.0366
     20 C         143.9825  140.2767  162.7274 C.ar    1  UNL1        0.0999
     21 N         144.1602  139.9068  161.2847 N.ar    1  UNL1       -0.2481
     22 C         142.6840  139.8867  168.6682 C.3     1  UNL1        0.1166
     23 N         142.8144  140.8788  169.7857 N.3     1  UNL1       -0.2935
     24 H         143.6582  141.4212  169.6008 H       1  UNL1        0.1236
     25 C         141.7142  141.8646  170.0456 C.3     1  UNL1        0.0543
     26 C         140.3300  141.5359  170.5212 C.3     1  UNL1        0.0157
     27 C         139.5653  142.8204  170.6451 C.3     1  UNL1        0.0014
     28 C         140.4768  143.9429  170.2461 C.3     1  UNL1        0.0014
     29 C         141.8049  143.3522  169.8756 C.3     1  UNL1        0.0157
@<TRIPOS>BOND
     1    15    16    1
     2    16    17   ar
     3    17    18   ar
     4    18    19   ar
     5    19     1    1
     6     1     2   ar
     7     2     3    1
     8     2     4   ar
     9     4    22    1
    10    22    23    1
    11    23    25    1
    12    25    26    1
    13    26    27    1
    14    27    28    1
    15    28    29    1
    16     4     5   ar
    17     5     6   ar
    18     6     7    1
    19     7     8   ar
    20     8     9   ar
    21     9    10   ar
    22    10    11    1
    23    10    12   ar
    24    12    13   ar
    25    13    14    1
    26    19    20   ar
    27    20    21   ar
    28    21    16   ar
    29     6     1   ar
    30    13     7   ar
    31    29    25    1
    32    23    24    1
@<TRIPOS>MOLECULE
*****
 29 32 0 0 0
SMALL
GASTEIGER

@<TRIPOS>ATOM
      1 C         142.6292  142.0421  164.3380 C.ar    1  UNL1        0.0832
      2 C         143.4179  142.5977  165.4867 C.ar    1  UNL1        0.0125
      3 C         144.5519  143.5745  165.3870 C.3     1  UNL1        0.0340
      4 C         142.8735  142.0050  166.7525 C.ar    1  UNL1        0.0924
      5 N         141.7483  141.0831  166.3862 N.ar    1  UNL1       -0.1671
      6 N         141.5974  141.1061  164.8940 N.ar    1  UNL1       -0.2119
      7 C         140.5913  140.3293  164.0976 C.ar    1  UNL1        0.1743
      8 N         139.2339  140.9105  163.8329 N.ar    1  UNL1       -0.2234
      9 C         138.2277  140.1337  163.0365 C.ar    1  UNL1        0.1120
     10 C         138.5788  138.7758  162.5048 C.ar    1  UNL1        0.0777
     11 CL        137.5727  137.9990  161.7083 Cl      1  UNL1       -0.0806
     12 C         139.9361  138.1946  162.7694 C.ar    1  UNL1        0.0275
     13 C         140.9423  138.9714  163.5659 C.ar    1  UNL1        0.0943
     14 CL        142.2996  138.3901  163.8305 Cl      1  UNL1       -0.0790
     15 C         143.4567  143.3367  158.5381 C.3     1  UNL1        0.0521
     16 C         143.2498  143.0131  159.9881 C.ar    1  UNL1        0.0594
     17 C         143.6822  141.6824  160.5286 C.ar    1  UNL1        0.0148
     18 C         143.4754  141.3587  161.9786 C.ar    1  UNL1        0.0042
     19 C         142.8361  142.3658  162.8880 C.ar    1  UNL1        0.0366
     20 C         142.4037  143.6964  162.3475 C.ar    1  UNL1        0.0999
     21 N         142.6106  144.0201  160.8975 N.ar    1  UNL1       -0.2481
     22 C         143.3675  142.2851  168.1408 C.3     1  UNL1        0.1166
     23 N         142.4043  142.7161  169.2069 N.3     1  UNL1       -0.2935
     24 H         141.9367  143.5537  168.8601 H       1  UNL1        0.1236
     25 C         141.3279  141.7790  169.6685 C.3     1  UNL1        0.0543
     26 C         141.5281  140.5490  170.5034 C.3     1  UNL1        0.0157
     27 C         140.1862  139.9172  170.7271 C.3     1  UNL1        0.0014
     28 C         139.1566  140.7566  170.0305 C.3     1  UNL1        0.0014
     29 C         139.8622  141.9073  169.3762 C.3     1  UNL1        0.0157
@<TRIPOS>BOND
     1    15    16    1
     2    16    17   ar
     3    17    18   ar
     4    18    19   ar
     5    19     1    1
     6     1     2   ar
     7     2     3    1
     8     2     4   ar
     9     4    22    1
    10    22    23    1
    11    23    25    1
    12    25    26    1
    13    26    27    1
    14    27    28    1
    15    28    29    1
    16     4     5   ar
    17     5     6   ar
    18     6     7    1
    19     7     8   ar
    20     8     9   ar
    21     9    10   ar
    22    10    11    1
    23    10    12   ar
    24    12    13   ar
    25    13    14    1
    26    19    20   ar
    27    20    21   ar
    28    21    16   ar
    29     6     1   ar
    30    13     7   ar
    31    29    25    1
    32    23    24    1
@<TRIPOS>MOLECULE
*****
 29 32 0 0 0
SMALL
GASTEIGER

@<TRIPOS>ATOM
      1 C         140.3144  143.5413  159.5283 C.ar    1  UNL1        0.0832
      2 C         139.8355  143.9888  158.1791 C.ar    1  UNL1        0.0125
      3 C         138.7688  143.3269  157.3580 C.3     1  UNL1        0.0340
      4 C         140.6105  145.2143  157.7950 C.ar    1  UNL1        0.0924
      5 N         141.5684  145.5243  158.9069 N.ar    1  UNL1       -0.1671
      6 N         141.3854  144.4903  159.9781 N.ar    1  UNL1       -0.2119
      7 C         142.1408  144.4181  161.2720 C.ar    1  UNL1        0.1743
      8 N         143.4934  143.7709  161.3156 N.ar    1  UNL1       -0.2234
      9 C         144.2489  143.6987  162.6095 C.ar    1  UNL1        0.1120
     10 C         143.6518  144.2735  163.8597 C.ar    1  UNL1        0.0777
     11 CL        144.4072  144.2013  165.1536 Cl      1  UNL1       -0.0806
     12 C         142.2992  144.9206  163.8160 C.ar    1  UNL1        0.0275
     13 C         141.5438  144.9928  162.5221 C.ar    1  UNL1        0.0943
     14 CL        140.1912  145.6400  162.4786 Cl      1  UNL1       -0.0790
     15 C         138.2998  138.7899  162.5885 C.3     1  UNL1        0.0521
     16 C         138.8034  139.9777  161.8235 C.ar    1  UNL1        0.0594
     17 C         138.0091  141.2500  161.8054 C.ar    1  UNL1        0.0148
     18 C         138.5127  142.4378  161.0403 C.ar    1  UNL1        0.0042
     19 C         139.8107  142.3535  160.2933 C.ar    1  UNL1        0.0366
     20 C         140.6051  141.0812  160.3114 C.ar    1  UNL1        0.0999
     21 N         140.1014  139.8934  161.0765 N.ar    1  UNL1       -0.2481
     22 C         140.4548  145.9931  156.5225 C.3     1  UNL1        0.1166
     23 N         139.1870  146.7491  156.2562 N.3     1  UNL1       -0.2935
     24 H         138.7419  146.9054  157.1606 H       1  UNL1        0.1236
     25 C         139.2379  148.0784  155.5632 C.3     1  UNL1        0.0543
     26 C         139.9113  148.3649  154.2538 C.3     1  UNL1        0.0157
     27 C         139.7140  149.8182  153.9393 C.3     1  UNL1        0.0014
     28 C         138.9186  150.4300  155.0543 C.3     1  UNL1        0.0014
     29 C         138.6244  149.3547  156.0579 C.3     1  UNL1        0.0157
@<TRIPOS>BOND
     1    15    16    1
     2    16    17   ar
     3    17    18   ar
     4    18    19   ar
     5    19     1    1
     6     1     2   ar
     7     2     3    1
     8     2     4   ar
     9     4    22    1
    10    22    23    1
    11    23    25    1
    12    25    26    1
    13    26    27    1
    14    27    28    1
    15    28    29    1
    16     4     5   ar
    17     5     6   ar
    18     6     7    1
    19     7     8   ar
    20     8     9   ar
    21     9    10   ar
    22    10    11    1
    23    10    12   ar
    24    12    13   ar
    25    13    14    1
    26    19    20   ar
    27    20    21   ar
    28    21    16   ar
    29     6     1   ar
    30    13     7   ar
    31    29    25    1
    32    23    24    1
