@<TRIPOS>MOLECULE
*****
 43 48 0 0 0
SMALL
GASTEIGER

@<TRIPOS>ATOM
      1 O         141.2253  136.5496  163.5055 O.2     1  UNL1       -0.2616
      2 C         140.8107  137.7840  162.7610 C.2     1  UNL1        0.2903
      3 S         140.9684  138.0201  161.2882 S.3     1  UNL1       -0.0248
      4 C         140.4208  139.3811  160.9755 C.2     1  UNL1        0.0879
      5 C         140.3770  140.0241  159.6210 C.2     1  UNL1        0.0112
      6 C         139.9245  139.9862  162.2552 C.2     1  UNL1        0.2653
      7 O         139.2973  141.3405  162.4051 O.2     1  UNL1       -0.2686
      8 N         140.1654  138.9992  163.3587 N.am    1  UNL1       -0.1954
      9 C         140.9140  139.2933  158.4262 C.ar    1  UNL1        0.0008
     10 C         142.3433  139.4811  158.0120 C.ar    1  UNL1        0.0031
     11 C         142.8802  138.7503  156.8172 C.ar    1  UNL1        0.0375
     12 C         141.9877  137.8316  156.0365 C.ar    1  UNL1        0.1453
     13 C         140.5583  137.6437  156.4507 C.ar    1  UNL1        0.0375
     14 C         140.0215  138.3745  157.6455 C.ar    1  UNL1        0.0031
     15 O         142.5246  137.1007  154.8417 O.3     1  UNL1       -0.4535
     16 C         142.8049  135.6296  154.9259 C.ar    1  UNL1        0.1453
     17 C         143.6331  135.0872  156.0529 C.ar    1  UNL1        0.0380
     18 C         143.9133  133.6160  156.1371 C.ar    1  UNL1        0.0098
     19 C         143.3655  132.6872  155.0944 C.ar    1  UNL1        0.0348
     20 BR        143.6457  131.2161  155.1786 Br      1  UNL1       -0.0490
     21 C         142.5373  133.2296  153.9674 C.ar    1  UNL1        0.0098
     22 C         142.2570  134.7008  153.8832 C.ar    1  UNL1        0.0380
     23 C         139.8216  139.1932  164.8058 C.ar    1  UNL1        0.0619
     24 C         140.9135  139.2958  165.8289 C.ar    1  UNL1        0.0185
     25 C         140.5697  139.4899  167.2760 C.ar    1  UNL1        0.0382
     26 C         139.1337  139.5813  167.6999 C.ar    1  UNL1        0.1386
     27 C         138.0417  139.4786  166.6767 C.ar    1  UNL1        0.0382
     28 C         138.3856  139.2846  165.2296 C.ar    1  UNL1        0.0185
     29 O         138.7898  139.7753  169.1471 O.3     1  UNL1       -0.4755
     30 C         139.7186  140.5403  170.0427 C.3     1  UNL1        0.2054
     31 C         139.5036  142.0075  170.2685 C.3     1  UNL1        0.0488
     32 C         140.3265  143.0107  169.5159 C.3     1  UNL1        0.0212
     33 C         141.6696  142.6226  168.9723 C.3     1  UNL1        0.0723
     34 N         141.8967  142.5860  167.4900 N.3     1  UNL1       -0.2703
     35 C         143.2386  142.1939  166.9463 C.3     1  UNL1        0.0897
     36 C         143.4657  142.1574  165.4640 C.3     1  UNL1        0.0897
     37 N         142.3509  142.5130  164.5254 N.3     1  UNL1       -0.2703
     38 C         141.0090  142.9052  165.0691 C.3     1  UNL1        0.0897
     39 C         140.7819  142.9417  166.5514 C.3     1  UNL1        0.0897
     40 C         142.5780  142.4765  163.0433 C.3     1  UNL1        0.0721
     41 C         143.3017  141.3178  162.4237 C.3     1  UNL1        0.0160
     42 C         143.9125  140.6603  161.2218 C.3     1  UNL1        0.0014
     43 C         143.9442  139.9686  162.5524 C.3     1  UNL1        0.0014
@<TRIPOS>BOND
     1     1     2    2
     2     2     3    1
     3     3     4    1
     4     4     5    2
     5     5     9    1
     6     9    10   ar
     7    10    11   ar
     8    11    12   ar
     9    12    15    1
    10    15    16    1
    11    16    17   ar
    12    17    18   ar
    13    18    19   ar
    14    19    20    1
    15    19    21   ar
    16    21    22   ar
    17    12    13   ar
    18    13    14   ar
    19     4     6    1
    20     6     7    2
    21     6     8   am
    22     8    23    1
    23    23    24   ar
    24    24    25   ar
    25    25    26   ar
    26    26    29    1
    27    29    30    1
    28    30    31    1
    29    31    32    1
    30    32    33    1
    31    33    34    1
    32    34    35    1
    33    35    36    1
    34    36    37    1
    35    37    40    1
    36    40    41    1
    37    41    42    1
    38    42    43    1
    39    37    38    1
    40    38    39    1
    41    26    27   ar
    42    27    28   ar
    43     8     2   am
    44    28    23   ar
    45    14     9   ar
    46    39    34    1
    47    22    16   ar
    48    43    41    1
@<TRIPOS>MOLECULE
*****
 43 48 0 0 0
SMALL
GASTEIGER

@<TRIPOS>ATOM
      1 O         140.1358  146.4473  162.4685 O.2     1  UNL1       -0.2616
      2 C         140.3929  145.1962  161.6821 C.2     1  UNL1        0.2903
      3 S         140.4594  145.0924  160.1871 S.3     1  UNL1       -0.0248
      4 C         140.7363  143.6612  159.8336 C.2     1  UNL1        0.0879
      5 C         140.8828  143.1080  158.4471 C.2     1  UNL1        0.0112
      6 C         140.8409  142.8804  161.1101 C.2     1  UNL1        0.2653
      7 O         141.1105  141.4092  161.2241 O.2     1  UNL1       -0.2686
      8 N         140.6287  143.8290  162.2525 N.am    1  UNL1       -0.1954
      9 C         140.7519  144.0154  157.2598 C.ar    1  UNL1        0.0008
     10 C         141.9445  144.7777  156.7633 C.ar    1  UNL1        0.0031
     11 C         141.8135  145.6851  155.5761 C.ar    1  UNL1        0.0375
     12 C         140.4899  145.8301  154.8854 C.ar    1  UNL1        0.1453
     13 C         139.2973  145.0678  155.3819 C.ar    1  UNL1        0.0375
     14 C         139.4283  144.1604  156.5691 C.ar    1  UNL1        0.0031
     15 O         140.3590  146.7375  153.6981 O.3     1  UNL1       -0.4535
     16 C         139.9508  148.1682  153.8890 C.ar    1  UNL1        0.1453
     17 C         140.2355  149.1787  152.8176 C.ar    1  UNL1        0.0380
     18 C         139.8273  150.6094  153.0085 C.ar    1  UNL1        0.0098
     19 C         139.1344  151.0296  154.2708 C.ar    1  UNL1        0.0348
     20 BR        138.7263  152.4603  154.4617 Br      1  UNL1       -0.0490
     21 C         138.8498  150.0191  155.3422 C.ar    1  UNL1        0.0098
     22 C         139.2580  148.5884  155.1513 C.ar    1  UNL1        0.0380
     23 C         140.6488  143.4730  163.7095 C.ar    1  UNL1        0.0619
     24 C         141.8770  142.8613  164.3152 C.ar    1  UNL1        0.0185
     25 C         141.8971  142.5053  165.7722 C.ar    1  UNL1        0.0382
     26 C         140.6888  142.7610  166.6234 C.ar    1  UNL1        0.1386
     27 C         139.4604  143.3727  166.0176 C.ar    1  UNL1        0.0382
     28 C         139.4404  143.7287  164.5606 C.ar    1  UNL1        0.0185
     29 O         140.7088  142.4050  168.0805 O.3     1  UNL1       -0.4755
     30 C         140.0372  141.1505  168.5553 C.3     1  UNL1        0.2054
     31 C         140.0687  139.9152  167.7052 C.3     1  UNL1        0.0488
     32 C         138.8512  139.5073  166.9296 C.3     1  UNL1        0.0212
     33 C         138.9675  138.4953  165.8286 C.3     1  UNL1        0.0723
     34 N         138.5910  138.8672  164.4250 N.3     1  UNL1       -0.2703
     35 C         138.0986  140.2514  164.1224 C.3     1  UNL1        0.0897
     36 C         137.7221  140.6234  162.7189 C.3     1  UNL1        0.0897
     37 N         137.8381  139.6111  161.6179 N.3     1  UNL1       -0.2703
     38 C         138.3305  138.2269  161.9206 C.3     1  UNL1        0.0897
     39 C         138.7070  137.8550  163.3241 C.3     1  UNL1        0.0897
     40 C         137.4617  139.9830  160.2145 C.3     1  UNL1        0.0721
     41 C         138.4768  139.8844  159.1145 C.3     1  UNL1        0.0160
     42 C         138.8999  140.1833  157.7067 C.3     1  UNL1        0.0014
     43 C         139.8116  139.4150  158.6169 C.3     1  UNL1        0.0014
@<TRIPOS>BOND
     1     1     2    2
     2     2     3    1
     3     3     4    1
     4     4     5    2
     5     5     9    1
     6     9    10   ar
     7    10    11   ar
     8    11    12   ar
     9    12    15    1
    10    15    16    1
    11    16    17   ar
    12    17    18   ar
    13    18    19   ar
    14    19    20    1
    15    19    21   ar
    16    21    22   ar
    17    12    13   ar
    18    13    14   ar
    19     4     6    1
    20     6     7    2
    21     6     8   am
    22     8    23    1
    23    23    24   ar
    24    24    25   ar
    25    25    26   ar
    26    26    29    1
    27    29    30    1
    28    30    31    1
    29    31    32    1
    30    32    33    1
    31    33    34    1
    32    34    35    1
    33    35    36    1
    34    36    37    1
    35    37    40    1
    36    40    41    1
    37    41    42    1
    38    42    43    1
    39    37    38    1
    40    38    39    1
    41    26    27   ar
    42    27    28   ar
    43     8     2   am
    44    28    23   ar
    45    14     9   ar
    46    39    34    1
    47    22    16   ar
    48    43    41    1
@<TRIPOS>MOLECULE
*****
 43 48 0 0 0
SMALL
GASTEIGER

@<TRIPOS>ATOM
      1 O         139.7931  145.5275  163.4678 O.2     1  UNL1       -0.2616
      2 C         140.6746  144.6348  162.6456 C.2     1  UNL1        0.2903
      3 S         140.7666  144.6230  161.1485 S.3     1  UNL1       -0.0248
      4 C         141.7677  143.5780  160.7538 C.2     1  UNL1        0.0879
      5 C         142.1712  143.2284  159.3520 C.2     1  UNL1        0.0112
      6 C         142.2943  142.9439  162.0070 C.2     1  UNL1        0.2653
      7 O         143.3170  141.8489  162.0785 O.2     1  UNL1       -0.2686
      8 N         141.6188  143.5970  163.1762 N.am    1  UNL1       -0.1954
      9 C         141.5553  143.9524  158.1916 C.ar    1  UNL1        0.0008
     10 C         140.2958  143.4314  157.5656 C.ar    1  UNL1        0.0031
     11 C         139.6799  144.1554  156.4052 C.ar    1  UNL1        0.0375
     12 C         140.3235  145.4004  155.8709 C.ar    1  UNL1        0.1453
     13 C         141.5831  145.9215  156.4969 C.ar    1  UNL1        0.0375
     14 C         142.1989  145.1975  157.6573 C.ar    1  UNL1        0.0031
     15 O         139.7076  146.1244  154.7105 O.3     1  UNL1       -0.4535
     16 C         139.4855  147.6061  154.7833 C.ar    1  UNL1        0.1453
     17 C         138.7191  148.1941  155.9309 C.ar    1  UNL1        0.0380
     18 C         138.4970  149.6758  156.0036 C.ar    1  UNL1        0.0098
     19 C         139.0413  150.5695  154.9289 C.ar    1  UNL1        0.0348
     20 BR        138.8192  152.0511  155.0017 Br      1  UNL1       -0.0490
     21 C         139.8076  149.9815  153.7813 C.ar    1  UNL1        0.0098
     22 C         140.0298  148.4998  153.7085 C.ar    1  UNL1        0.0380
     23 C         141.8473  143.2698  164.6222 C.ar    1  UNL1        0.0619
     24 C         143.2442  143.0965  165.1402 C.ar    1  UNL1        0.0185
     25 C         143.4727  142.7693  166.5861 C.ar    1  UNL1        0.0382
     26 C         142.3042  142.6153  167.5139 C.ar    1  UNL1        0.1386
     27 C         140.9072  142.7886  166.9959 C.ar    1  UNL1        0.0382
     28 C         140.6787  143.1158  165.5499 C.ar    1  UNL1        0.0185
     29 O         142.5327  142.2881  168.9600 O.3     1  UNL1       -0.4755
     30 C         141.8567  141.0990  169.5757 C.3     1  UNL1        0.2054
     31 C         142.6223  139.8263  169.7852 C.3     1  UNL1        0.0488
     32 C         142.6021  138.7571  168.7333 C.3     1  UNL1        0.0212
     33 C         142.8767  139.1085  167.3012 C.3     1  UNL1        0.0723
     34 N         141.7371  139.3200  166.3490 N.3     1  UNL1       -0.2703
     35 C         140.3254  139.3143  166.8558 C.3     1  UNL1        0.0897
     36 C         139.1858  139.5258  165.9036 C.3     1  UNL1        0.0897
     37 N         139.4580  139.7430  164.4446 N.3     1  UNL1       -0.2703
     38 C         140.8698  139.7487  163.9377 C.3     1  UNL1        0.0897
     39 C         142.0094  139.5373  164.8899 C.3     1  UNL1        0.0897
     40 C         138.3185  139.9545  163.4924 C.3     1  UNL1        0.0721
     41 C         138.0032  141.3340  162.9946 C.3     1  UNL1        0.0160
     42 C         137.5700  142.7446  163.2638 C.3     1  UNL1        0.0014
     43 C         137.8904  142.3126  161.8636 C.3     1  UNL1        0.0014
@<TRIPOS>BOND
     1     1     2    2
     2     2     3    1
     3     3     4    1
     4     4     5    2
     5     5     9    1
     6     9    10   ar
     7    10    11   ar
     8    11    12   ar
     9    12    15    1
    10    15    16    1
    11    16    17   ar
    12    17    18   ar
    13    18    19   ar
    14    19    20    1
    15    19    21   ar
    16    21    22   ar
    17    12    13   ar
    18    13    14   ar
    19     4     6    1
    20     6     7    2
    21     6     8   am
    22     8    23    1
    23    23    24   ar
    24    24    25   ar
    25    25    26   ar
    26    26    29    1
    27    29    30    1
    28    30    31    1
    29    31    32    1
    30    32    33    1
    31    33    34    1
    32    34    35    1
    33    35    36    1
    34    36    37    1
    35    37    40    1
    36    40    41    1
    37    41    42    1
    38    42    43    1
    39    37    38    1
    40    38    39    1
    41    26    27   ar
    42    27    28   ar
    43     8     2   am
    44    28    23   ar
    45    14     9   ar
    46    39    34    1
    47    22    16   ar
    48    43    41    1
@<TRIPOS>MOLECULE
*****
 43 48 0 0 0
SMALL
GASTEIGER

@<TRIPOS>ATOM
      1 O         140.2138  146.0973  162.0286 O.2     1  UNL1       -0.2616
      2 C         140.1156  144.9445  161.0739 C.2     1  UNL1        0.2903
      3 S         140.1242  145.0364  159.5767 S.3     1  UNL1       -0.0248
      4 C         140.0055  143.6461  159.0263 C.2     1  UNL1        0.0879
      5 C         139.9741  143.2725  157.5739 C.2     1  UNL1        0.0112
      6 C         139.9235  142.6950  160.1833 C.2     1  UNL1        0.2653
      7 O         139.7959  141.2032  160.0910 O.2     1  UNL1       -0.2686
      8 N         139.9916  143.4974  161.4488 N.am    1  UNL1       -0.1954
      9 C         140.0659  144.3390  156.5230 C.ar    1  UNL1        0.0008
     10 C         138.8290  144.7956  155.8078 C.ar    1  UNL1        0.0031
     11 C         138.9208  145.8620  154.7570 C.ar    1  UNL1        0.0375
     12 C         140.2495  146.4719  154.4214 C.ar    1  UNL1        0.1453
     13 C         141.4864  146.0153  155.1366 C.ar    1  UNL1        0.0375
     14 C         141.3946  144.9489  156.1874 C.ar    1  UNL1        0.0031
     15 O         140.3412  147.5384  153.3706 O.3     1  UNL1       -0.4535
     16 C         139.8777  148.9323  153.6741 C.ar    1  UNL1        0.1453
     17 C         139.9669  149.9981  152.6224 C.ar    1  UNL1        0.0380
     18 C         139.5033  151.3920  152.9261 C.ar    1  UNL1        0.0098
     19 C         138.9506  151.7201  154.2814 C.ar    1  UNL1        0.0348
     20 BR        138.4871  153.1140  154.5849 Br      1  UNL1       -0.0490
     21 C         138.8615  150.6543  155.3331 C.ar    1  UNL1        0.0098
     22 C         139.3250  149.2604  155.0295 C.ar    1  UNL1        0.0380
     23 C         139.9441  142.9490  162.8441 C.ar    1  UNL1        0.0619
     24 C         138.6255  142.7785  163.5384 C.ar    1  UNL1        0.0185
     25 C         138.5779  142.2301  164.9337 C.ar    1  UNL1        0.0382
     26 C         139.8490  141.8522  165.6348 C.ar    1  UNL1        0.1386
     27 C         141.1677  142.0227  164.9404 C.ar    1  UNL1        0.0382
     28 C         141.2152  142.5711  163.5451 C.ar    1  UNL1        0.0185
     29 O         139.8015  141.3038  167.0302 O.3     1  UNL1       -0.4755
     30 C         139.4702  139.8585  167.2571 C.3     1  UNL1        0.2054
     31 C         138.3312  139.2248  166.5150 C.3     1  UNL1        0.0488
     32 C         138.5266  137.9078  165.8240 C.3     1  UNL1        0.0212
     33 C         138.9165  137.8712  164.3760 C.3     1  UNL1        0.0723
     34 N         140.2991  138.2790  163.9611 N.3     1  UNL1       -0.2703
     35 C         140.5281  138.8840  162.6077 C.3     1  UNL1        0.0897
     36 C         141.9107  139.2918  162.1928 C.3     1  UNL1        0.0897
     37 N         143.0642  139.0947  163.1312 N.3     1  UNL1       -0.2703
     38 C         142.8352  138.4898  164.4846 C.3     1  UNL1        0.0897
     39 C         141.4526  138.0819  164.8995 C.3     1  UNL1        0.0897
     40 C         144.4467  139.5026  162.7163 C.3     1  UNL1        0.0721
     41 C         144.9332  140.8942  162.9937 C.3     1  UNL1        0.0160
     42 C         145.2048  142.2929  162.5248 C.3     1  UNL1        0.0014
     43 C         145.5039  141.9058  163.9427 C.3     1  UNL1        0.0014
@<TRIPOS>BOND
     1     1     2    2
     2     2     3    1
     3     3     4    1
     4     4     5    2
     5     5     9    1
     6     9    10   ar
     7    10    11   ar
     8    11    12   ar
     9    12    15    1
    10    15    16    1
    11    16    17   ar
    12    17    18   ar
    13    18    19   ar
    14    19    20    1
    15    19    21   ar
    16    21    22   ar
    17    12    13   ar
    18    13    14   ar
    19     4     6    1
    20     6     7    2
    21     6     8   am
    22     8    23    1
    23    23    24   ar
    24    24    25   ar
    25    25    26   ar
    26    26    29    1
    27    29    30    1
    28    30    31    1
    29    31    32    1
    30    32    33    1
    31    33    34    1
    32    34    35    1
    33    35    36    1
    34    36    37    1
    35    37    40    1
    36    40    41    1
    37    41    42    1
    38    42    43    1
    39    37    38    1
    40    38    39    1
    41    26    27   ar
    42    27    28   ar
    43     8     2   am
    44    28    23   ar
    45    14     9   ar
    46    39    34    1
    47    22    16   ar
    48    43    41    1
@<TRIPOS>MOLECULE
*****
 43 48 0 0 0
SMALL
GASTEIGER

@<TRIPOS>ATOM
      1 O         140.0370  146.4385  162.2463 O.2     1  UNL1       -0.2616
      2 C         140.3566  145.2087  161.4492 C.2     1  UNL1        0.2903
      3 S         140.4626  145.1294  159.9550 S.3     1  UNL1       -0.0248
      4 C         140.7977  143.7140  159.5885 C.2     1  UNL1        0.0879
      5 C         140.9968  143.1867  158.1985 C.2     1  UNL1        0.0112
      6 C         140.8988  142.9186  160.8562 C.2     1  UNL1        0.2653
      7 O         141.2168  141.4561  160.9564 O.2     1  UNL1       -0.2686
      8 N         140.6262  143.8423  162.0062 N.am    1  UNL1       -0.1954
      9 C         140.8628  144.1064  157.0211 C.ar    1  UNL1        0.0008
     10 C         139.5224  144.3151  156.3811 C.ar    1  UNL1        0.0031
     11 C         139.3884  145.2348  155.2038 C.ar    1  UNL1        0.0375
     12 C         140.5950  145.9458  154.6664 C.ar    1  UNL1        0.1453
     13 C         141.9354  145.7371  155.3063 C.ar    1  UNL1        0.0375
     14 C         142.0693  144.8174  156.4837 C.ar    1  UNL1        0.0031
     15 O         140.4610  146.8655  153.4890 O.3     1  UNL1       -0.4535
     16 C         140.0194  148.2845  153.6922 C.ar    1  UNL1        0.1453
     17 C         139.3732  148.6914  154.9832 C.ar    1  UNL1        0.0380
     18 C         138.9315  150.1105  155.1864 C.ar    1  UNL1        0.0098
     19 C         139.1361  151.1227  154.0985 C.ar    1  UNL1        0.0348
     20 BR        138.6945  152.5417  154.3017 Br      1  UNL1       -0.0490
     21 C         139.7823  150.7158  152.8074 C.ar    1  UNL1        0.0098
     22 C         140.2240  149.2968  152.6042 C.ar    1  UNL1        0.0380
     23 C         140.6236  143.4658  163.4581 C.ar    1  UNL1        0.0619
     24 C         141.8760  142.9480  164.1008 C.ar    1  UNL1        0.0185
     25 C         141.8735  142.5714  165.5528 C.ar    1  UNL1        0.0382
     26 C         140.6184  142.7127  166.3620 C.ar    1  UNL1        0.1386
     27 C         139.3659  143.2305  165.7192 C.ar    1  UNL1        0.0382
     28 C         139.3685  143.6071  164.2673 C.ar    1  UNL1        0.0185
     29 O         140.6158  142.3361  167.8140 O.3     1  UNL1       -0.4755
     30 C         140.0664  141.0080  168.2434 C.3     1  UNL1        0.2054
     31 C         140.0282  139.8636  167.2745 C.3     1  UNL1        0.0488
     32 C         138.7205  139.4205  166.6884 C.3     1  UNL1        0.0212
     33 C         138.6950  138.3612  165.6267 C.3     1  UNL1        0.0723
     34 N         138.5749  138.7493  164.1827 N.3     1  UNL1       -0.2703
     35 C         138.8984  137.7532  163.1090 C.3     1  UNL1        0.0897
     36 C         138.7783  138.1412  161.6650 C.3     1  UNL1        0.0897
     37 N         138.3346  139.5255  161.2948 N.3     1  UNL1       -0.2703
     38 C         138.0110  140.5217  162.3686 C.3     1  UNL1        0.0897
     39 C         138.1311  140.1336  163.8125 C.3     1  UNL1        0.0897
     40 C         138.2145  139.9136  159.8509 C.3     1  UNL1        0.0721
     41 C         139.2085  139.4008  158.8513 C.3     1  UNL1        0.0160
     42 C         139.8012  138.2619  158.0757 C.3     1  UNL1        0.0014
     43 C         140.3371  139.6513  157.8957 C.3     1  UNL1        0.0014
@<TRIPOS>BOND
     1     1     2    2
     2     2     3    1
     3     3     4    1
     4     4     5    2
     5     5     9    1
     6     9    10   ar
     7    10    11   ar
     8    11    12   ar
     9    12    15    1
    10    15    16    1
    11    16    17   ar
    12    17    18   ar
    13    18    19   ar
    14    19    20    1
    15    19    21   ar
    16    21    22   ar
    17    12    13   ar
    18    13    14   ar
    19     4     6    1
    20     6     7    2
    21     6     8   am
    22     8    23    1
    23    23    24   ar
    24    24    25   ar
    25    25    26   ar
    26    26    29    1
    27    29    30    1
    28    30    31    1
    29    31    32    1
    30    32    33    1
    31    33    34    1
    32    34    35    1
    33    35    36    1
    34    36    37    1
    35    37    40    1
    36    40    41    1
    37    41    42    1
    38    42    43    1
    39    37    38    1
    40    38    39    1
    41    26    27   ar
    42    27    28   ar
    43     8     2   am
    44    28    23   ar
    45    14     9   ar
    46    39    34    1
    47    22    16   ar
    48    43    41    1
@<TRIPOS>MOLECULE
*****
 43 48 0 0 0
SMALL
GASTEIGER

@<TRIPOS>ATOM
      1 O         138.8544  139.3059  158.0109 O.2     1  UNL1       -0.2616
      2 C         140.3059  138.9358  157.9330 C.2     1  UNL1        0.2903
      3 S         140.8787  137.7658  157.1893 S.3     1  UNL1       -0.0248
      4 C         142.3663  137.7775  157.3817 C.2     1  UNL1        0.0879
      5 C         143.3369  136.7861  156.8115 C.2     1  UNL1        0.0112
      6 C         142.7128  138.9547  158.2443 C.2     1  UNL1        0.2653
      7 O         144.0908  139.3472  158.6882 O.2     1  UNL1       -0.2686
      8 N         141.4395  139.6706  158.5850 N.am    1  UNL1       -0.1954
      9 C         142.8404  135.6540  155.9618 C.ar    1  UNL1        0.0008
     10 C         142.5503  135.8791  154.5075 C.ar    1  UNL1        0.0031
     11 C         142.0539  134.7470  153.6578 C.ar    1  UNL1        0.0375
     12 C         141.8476  133.3899  154.2625 C.ar    1  UNL1        0.1453
     13 C         142.1378  133.1648  155.7168 C.ar    1  UNL1        0.0375
     14 C         142.6342  134.2969  156.5665 C.ar    1  UNL1        0.0031
     15 O         141.3512  132.2578  153.4128 O.3     1  UNL1       -0.4535
     16 C         141.1421  130.9014  154.0180 C.ar    1  UNL1        0.1453
     17 C         142.2672  129.9097  154.0431 C.ar    1  UNL1        0.0380
     18 C         142.0580  128.5533  154.6485 C.ar    1  UNL1        0.0098
     19 C         140.7238  128.1885  155.2287 C.ar    1  UNL1        0.0348
     20 BR        140.5147  126.8322  155.8340 Br      1  UNL1       -0.0490
     21 C         139.5986  129.1802  155.2036 C.ar    1  UNL1        0.0098
     22 C         139.8078  130.5366  154.5983 C.ar    1  UNL1        0.0380
     23 C         141.3206  140.9046  159.4295 C.ar    1  UNL1        0.0619
     24 C         141.9536  142.1869  158.9770 C.ar    1  UNL1        0.0185
     25 C         141.8347  143.4208  159.8215 C.ar    1  UNL1        0.0382
     26 C         141.0827  143.3724  161.1184 C.ar    1  UNL1        0.1386
     27 C         140.4496  142.0901  161.5709 C.ar    1  UNL1        0.0382
     28 C         140.5685  140.8561  160.7264 C.ar    1  UNL1        0.0185
     29 O         140.9638  144.6064  161.9630 O.3     1  UNL1       -0.4755
     30 C         141.5560  144.6322  163.3409 C.3     1  UNL1        0.2054
     31 C         142.9975  145.0009  163.5308 C.3     1  UNL1        0.0488
     32 C         144.0686  144.2337  162.8137 C.3     1  UNL1        0.0212
     33 C         144.6624  143.0083  163.4428 C.3     1  UNL1        0.0723
     34 N         143.9343  141.6990  163.3681 N.3     1  UNL1       -0.2703
     35 C         144.2564  140.7229  162.2757 C.3     1  UNL1        0.0897
     36 C         143.5282  139.4136  162.2011 C.3     1  UNL1        0.0897
     37 N         142.4779  139.0804  163.2190 N.3     1  UNL1       -0.2703
     38 C         142.1558  140.0565  164.3114 C.3     1  UNL1        0.0897
     39 C         142.8840  141.3658  164.3860 C.3     1  UNL1        0.0897
     40 C         141.7498  137.7712  163.1444 C.3     1  UNL1        0.0721
     41 C         140.2934  137.7018  163.4967 C.3     1  UNL1        0.0160
     42 C         139.2082  137.6498  164.5309 C.3     1  UNL1        0.0014
     43 C         138.8562  137.6338  163.0729 C.3     1  UNL1        0.0014
@<TRIPOS>BOND
     1     1     2    2
     2     2     3    1
     3     3     4    1
     4     4     5    2
     5     5     9    1
     6     9    10   ar
     7    10    11   ar
     8    11    12   ar
     9    12    15    1
    10    15    16    1
    11    16    17   ar
    12    17    18   ar
    13    18    19   ar
    14    19    20    1
    15    19    21   ar
    16    21    22   ar
    17    12    13   ar
    18    13    14   ar
    19     4     6    1
    20     6     7    2
    21     6     8   am
    22     8    23    1
    23    23    24   ar
    24    24    25   ar
    25    25    26   ar
    26    26    29    1
    27    29    30    1
    28    30    31    1
    29    31    32    1
    30    32    33    1
    31    33    34    1
    32    34    35    1
    33    35    36    1
    34    36    37    1
    35    37    40    1
    36    40    41    1
    37    41    42    1
    38    42    43    1
    39    37    38    1
    40    38    39    1
    41    26    27   ar
    42    27    28   ar
    43     8     2   am
    44    28    23   ar
    45    14     9   ar
    46    39    34    1
    47    22    16   ar
    48    43    41    1
@<TRIPOS>MOLECULE
*****
 43 48 0 0 0
SMALL
GASTEIGER

@<TRIPOS>ATOM
      1 O         143.6475  139.3155  160.4760 O.2     1  UNL1       -0.2616
      2 C         142.1655  139.1369  160.3283 C.2     1  UNL1        0.2903
      3 S         141.1683  139.0819  161.4474 S.3     1  UNL1       -0.0248
      4 C         139.8070  138.8931  160.8464 C.2     1  UNL1        0.0879
      5 C         138.5164  138.7849  161.6031 C.2     1  UNL1        0.0112
      6 C         139.9629  138.8314  159.3559 C.2     1  UNL1        0.2653
      7 O         138.8556  138.6506  158.3602 O.2     1  UNL1       -0.2686
      8 N         141.4206  138.9821  159.0356 N.am    1  UNL1       -0.1954
      9 C         138.5162  138.8649  163.1011 C.ar    1  UNL1        0.0008
     10 C         138.8654  137.6555  163.9168 C.ar    1  UNL1        0.0031
     11 C         138.8652  137.7356  165.4146 C.ar    1  UNL1        0.0375
     12 C         138.5159  139.0251  166.0967 C.ar    1  UNL1        0.1453
     13 C         138.1668  140.2345  165.2810 C.ar    1  UNL1        0.0375
     14 C         138.1669  140.1544  163.7832 C.ar    1  UNL1        0.0031
     15 O         138.5158  139.1051  167.5946 O.3     1  UNL1       -0.4535
     16 C         139.5035  139.9876  168.2986 C.ar    1  UNL1        0.1453
     17 C         140.8332  140.2773  167.6679 C.ar    1  UNL1        0.0380
     18 C         141.8210  141.1598  168.3720 C.ar    1  UNL1        0.0098
     19 C         141.4789  141.7525  169.7067 C.ar    1  UNL1        0.0348
     20 BR        142.4666  142.6350  170.4107 Br      1  UNL1       -0.0490
     21 C         140.1492  141.4629  170.3375 C.ar    1  UNL1        0.0098
     22 C         139.1615  140.5804  169.6335 C.ar    1  UNL1        0.0380
     23 C         142.0268  138.9786  157.6636 C.ar    1  UNL1        0.0619
     24 C         142.9256  137.8536  157.2437 C.ar    1  UNL1        0.0185
     25 C         143.5319  137.8501  155.8717 C.ar    1  UNL1        0.0382
     26 C         143.2392  138.9716  154.9196 C.ar    1  UNL1        0.1386
     27 C         142.3404  140.0966  155.3395 C.ar    1  UNL1        0.0382
     28 C         141.7341  140.1002  156.7116 C.ar    1  UNL1        0.0185
     29 O         143.8455  138.9681  153.5475 O.3     1  UNL1       -0.4755
     30 C         144.4709  140.2171  153.0008 C.3     1  UNL1        0.2054
     31 C         145.8239  140.6507  153.4817 C.3     1  UNL1        0.0488
     32 C         145.9535  141.4189  154.7635 C.3     1  UNL1        0.0212
     33 C         145.0546  142.5896  155.0305 C.3     1  UNL1        0.0723
     34 N         144.4163  142.7532  156.3781 N.3     1  UNL1       -0.2703
     35 C         145.0697  142.1656  157.5937 C.3     1  UNL1        0.0897
     36 C         144.4314  142.3291  158.9413 C.3     1  UNL1        0.0897
     37 N         143.1398  143.0804  159.0731 N.3     1  UNL1       -0.2703
     38 C         142.4864  143.6680  157.8575 C.3     1  UNL1        0.0897
     39 C         143.1247  143.5044  156.5099 C.3     1  UNL1        0.0897
     40 C         142.5016  143.2440  160.4206 C.3     1  UNL1        0.0721
     41 C         143.3438  143.5918  161.6122 C.3     1  UNL1        0.0160
     42 C         143.5899  144.4368  162.8268 C.3     1  UNL1        0.0014
     43 C         144.5562  143.3494  162.4613 C.3     1  UNL1        0.0014
@<TRIPOS>BOND
     1     1     2    2
     2     2     3    1
     3     3     4    1
     4     4     5    2
     5     5     9    1
     6     9    10   ar
     7    10    11   ar
     8    11    12   ar
     9    12    15    1
    10    15    16    1
    11    16    17   ar
    12    17    18   ar
    13    18    19   ar
    14    19    20    1
    15    19    21   ar
    16    21    22   ar
    17    12    13   ar
    18    13    14   ar
    19     4     6    1
    20     6     7    2
    21     6     8   am
    22     8    23    1
    23    23    24   ar
    24    24    25   ar
    25    25    26   ar
    26    26    29    1
    27    29    30    1
    28    30    31    1
    29    31    32    1
    30    32    33    1
    31    33    34    1
    32    34    35    1
    33    35    36    1
    34    36    37    1
    35    37    40    1
    36    40    41    1
    37    41    42    1
    38    42    43    1
    39    37    38    1
    40    38    39    1
    41    26    27   ar
    42    27    28   ar
    43     8     2   am
    44    28    23   ar
    45    14     9   ar
    46    39    34    1
    47    22    16   ar
    48    43    41    1
@<TRIPOS>MOLECULE
*****
 43 48 0 0 0
SMALL
GASTEIGER

@<TRIPOS>ATOM
      1 O         140.3880  145.8868  162.5392 O.2     1  UNL1       -0.2616
      2 C         140.4075  144.6796  161.6491 C.2     1  UNL1        0.2903
      3 S         140.3868  144.6896  160.1493 S.3     1  UNL1       -0.0248
      4 C         140.4177  143.2667  159.6757 C.2     1  UNL1        0.0879
      5 C         140.4101  142.8129  158.2460 C.2     1  UNL1        0.0112
      6 C         140.4575  142.3772  160.8828 C.2     1  UNL1        0.2653
      7 O         140.4967  140.8778  160.8722 O.2     1  UNL1       -0.2686
      8 N         140.4512  143.2504  162.1025 N.am    1  UNL1       -0.1954
      9 C         140.3685  143.8238  157.1385 C.ar    1  UNL1        0.0008
     10 C         139.0669  144.1474  156.4669 C.ar    1  UNL1        0.0031
     11 C         139.0254  145.1582  155.3595 C.ar    1  UNL1        0.0375
     12 C         140.2855  145.8454  154.9236 C.ar    1  UNL1        0.1453
     13 C         141.5871  145.5218  155.5952 C.ar    1  UNL1        0.0375
     14 C         141.6286  144.5110  156.7026 C.ar    1  UNL1        0.0031
     15 O         140.2439  146.8563  153.8161 O.3     1  UNL1       -0.4535
     16 C         139.8271  148.2680  154.1045 C.ar    1  UNL1        0.1453
     17 C         140.1907  149.3671  153.1507 C.ar    1  UNL1        0.0380
     18 C         139.7739  150.7789  153.4391 C.ar    1  UNL1        0.0098
     19 C         138.9935  151.0916  154.6813 C.ar    1  UNL1        0.0348
     20 BR        138.5767  152.5034  154.9697 Br      1  UNL1       -0.0490
     21 C         138.6299  149.9925  155.6352 C.ar    1  UNL1        0.0098
     22 C         139.0466  148.5808  155.3468 C.ar    1  UNL1        0.0380
     23 C         140.4830  142.7774  163.5256 C.ar    1  UNL1        0.0619
     24 C         141.6277  143.1578  164.4169 C.ar    1  UNL1        0.0185
     25 C         141.6595  142.6849  165.8401 C.ar    1  UNL1        0.0382
     26 C         140.5464  141.8315  166.3718 C.ar    1  UNL1        0.1386
     27 C         139.4016  141.4511  165.4803 C.ar    1  UNL1        0.0382
     28 C         139.3698  141.9240  164.0572 C.ar    1  UNL1        0.0185
     29 O         140.5782  141.3585  167.7949 O.3     1  UNL1       -0.4755
     30 C         141.1577  140.0151  168.1260 C.3     1  UNL1        0.2054
     31 C         142.4652  139.5934  167.5241 C.3     1  UNL1        0.0488
     32 C         142.4879  138.8764  166.2068 C.3     1  UNL1        0.0212
     33 C         143.7568  138.8123  165.4094 C.3     1  UNL1        0.0723
     34 N         143.7333  139.1020  163.9379 N.3     1  UNL1       -0.2703
     35 C         142.9264  138.2367  163.0159 C.3     1  UNL1        0.0897
     36 C         142.9029  138.5265  161.5443 C.3     1  UNL1        0.0897
     37 N         143.6864  139.6816  160.9947 N.3     1  UNL1       -0.2703
     38 C         144.4934  140.5469  161.9167 C.3     1  UNL1        0.0897
     39 C         144.5168  140.2571  163.3883 C.3     1  UNL1        0.0897
     40 C         143.6630  139.9712  159.5232 C.3     1  UNL1        0.0721
     41 C         144.0308  141.3363  159.0216 C.3     1  UNL1        0.0160
     42 C         143.9757  142.8290  159.1586 C.3     1  UNL1        0.0014
     43 C         144.7229  142.2077  158.0159 C.3     1  UNL1        0.0014
@<TRIPOS>BOND
     1     1     2    2
     2     2     3    1
     3     3     4    1
     4     4     5    2
     5     5     9    1
     6     9    10   ar
     7    10    11   ar
     8    11    12   ar
     9    12    15    1
    10    15    16    1
    11    16    17   ar
    12    17    18   ar
    13    18    19   ar
    14    19    20    1
    15    19    21   ar
    16    21    22   ar
    17    12    13   ar
    18    13    14   ar
    19     4     6    1
    20     6     7    2
    21     6     8   am
    22     8    23    1
    23    23    24   ar
    24    24    25   ar
    25    25    26   ar
    26    26    29    1
    27    29    30    1
    28    30    31    1
    29    31    32    1
    30    32    33    1
    31    33    34    1
    32    34    35    1
    33    35    36    1
    34    36    37    1
    35    37    40    1
    36    40    41    1
    37    41    42    1
    38    42    43    1
    39    37    38    1
    40    38    39    1
    41    26    27   ar
    42    27    28   ar
    43     8     2   am
    44    28    23   ar
    45    14     9   ar
    46    39    34    1
    47    22    16   ar
    48    43    41    1
@<TRIPOS>MOLECULE
*****
 43 48 0 0 0
SMALL
GASTEIGER

@<TRIPOS>ATOM
      1 O         138.8335  139.2580  157.7121 O.2     1  UNL1       -0.2616
      2 C         140.2912  138.9310  157.5777 C.2     1  UNL1        0.2903
      3 S         140.8652  137.7282  156.8893 S.3     1  UNL1       -0.0248
      4 C         142.3596  137.8032  156.9943 C.2     1  UNL1        0.0879
      5 C         143.3334  136.8044  156.4428 C.2     1  UNL1        0.0112
      6 C         142.7093  139.0523  157.7475 C.2     1  UNL1        0.2653
      7 O         144.0941  139.5220  158.0816 O.2     1  UNL1       -0.2686
      8 N         141.4309  139.7494  158.1081 N.am    1  UNL1       -0.1954
      9 C         142.8332  135.5962  155.7077 C.ar    1  UNL1        0.0008
     10 C         142.6010  135.6619  154.2273 C.ar    1  UNL1        0.0031
     11 C         142.1008  134.4538  153.4923 C.ar    1  UNL1        0.0375
     12 C         141.8329  133.1800  154.2377 C.ar    1  UNL1        0.1453
     13 C         142.0651  133.1143  155.7182 C.ar    1  UNL1        0.0375
     14 C         142.5653  134.3224  156.4532 C.ar    1  UNL1        0.0031
     15 O         141.3327  131.9719  153.5026 O.3     1  UNL1       -0.4535
     16 C         141.1539  130.6722  154.2299 C.ar    1  UNL1        0.1453
     17 C         142.3497  129.8345  154.5738 C.ar    1  UNL1        0.0380
     18 C         142.1708  128.5348  155.3011 C.ar    1  UNL1        0.0098
     19 C         140.7962  128.0729  155.6844 C.ar    1  UNL1        0.0348
     20 BR        140.6174  126.7732  156.4116 Br      1  UNL1       -0.0490
     21 C         139.6004  128.9105  155.3404 C.ar    1  UNL1        0.0098
     22 C         139.7792  130.2102  154.6131 C.ar    1  UNL1        0.0380
     23 C         141.3131  141.0384  158.8660 C.ar    1  UNL1        0.0619
     24 C         140.9392  141.0230  160.3185 C.ar    1  UNL1        0.0185
     25 C         140.8213  142.3120  161.0764 C.ar    1  UNL1        0.0382
     26 C         141.0774  143.6165  160.3817 C.ar    1  UNL1        0.1386
     27 C         141.4513  143.6320  158.9291 C.ar    1  UNL1        0.0382
     28 C         141.5691  142.3430  158.1712 C.ar    1  UNL1        0.0185
     29 O         140.9595  144.9057  161.1396 O.3     1  UNL1       -0.4755
     30 C         139.6372  145.3196  161.7143 C.3     1  UNL1        0.2054
     31 C         139.2665  144.9148  163.1102 C.3     1  UNL1        0.0488
     32 C         137.8939  144.3820  163.3971 C.3     1  UNL1        0.0212
     33 C         137.7248  143.1819  164.2808 C.3     1  UNL1        0.0723
     34 N         138.3268  141.8668  163.8831 N.3     1  UNL1       -0.2703
     35 C         137.6264  140.9923  162.8857 C.3     1  UNL1        0.0897
     36 C         138.2284  139.6772  162.4881 C.3     1  UNL1        0.0897
     37 N         139.5309  139.2366  163.0878 N.3     1  UNL1       -0.2703
     38 C         140.2312  140.1111  164.0852 C.3     1  UNL1        0.0897
     39 C         139.6292  141.4262  164.4829 C.3     1  UNL1        0.0897
     40 C         140.1329  137.9216  162.6902 C.3     1  UNL1        0.0721
     41 C         141.5385  137.8671  162.1691 C.3     1  UNL1        0.0160
     42 C         142.4968  137.6319  161.0394 C.3     1  UNL1        0.0014
     43 C         143.0144  138.0080  162.3961 C.3     1  UNL1        0.0014
@<TRIPOS>BOND
     1     1     2    2
     2     2     3    1
     3     3     4    1
     4     4     5    2
     5     5     9    1
     6     9    10   ar
     7    10    11   ar
     8    11    12   ar
     9    12    15    1
    10    15    16    1
    11    16    17   ar
    12    17    18   ar
    13    18    19   ar
    14    19    20    1
    15    19    21   ar
    16    21    22   ar
    17    12    13   ar
    18    13    14   ar
    19     4     6    1
    20     6     7    2
    21     6     8   am
    22     8    23    1
    23    23    24   ar
    24    24    25   ar
    25    25    26   ar
    26    26    29    1
    27    29    30    1
    28    30    31    1
    29    31    32    1
    30    32    33    1
    31    33    34    1
    32    34    35    1
    33    35    36    1
    34    36    37    1
    35    37    40    1
    36    40    41    1
    37    41    42    1
    38    42    43    1
    39    37    38    1
    40    38    39    1
    41    26    27   ar
    42    27    28   ar
    43     8     2   am
    44    28    23   ar
    45    14     9   ar
    46    39    34    1
    47    22    16   ar
    48    43    41    1
