@<TRIPOS>MOLECULE
*****
 31 34 0 0 0
SMALL
GASTEIGER

@<TRIPOS>ATOM
      1 C         143.0732  142.4597  168.8500 C.ar    1  UNL1        0.1345
      2 C         141.8218  141.6549  169.0405 C.ar    1  UNL1        0.0253
      3 C         141.1409  141.0354  167.8563 C.ar    1  UNL1        0.0219
      4 C         141.7115  141.2206  166.4814 C.ar    1  UNL1        0.0985
      5 N         140.8267  140.4958  165.5110 N.2     1  UNL1       -0.2478
      6 C         139.7094  139.8625  166.2860 C.2     1  UNL1        0.0627
      7 C         138.5403  139.0254  165.8591 C.3     1  UNL1        0.0622
      8 C         138.3461  138.6919  164.4096 C.3     1  UNL1        0.0110
      9 C         137.5654  138.5217  166.8817 C.2     1  UNL1       -0.0205
     10 C         137.7596  138.8552  168.3312 C.2     1  UNL1       -0.0042
     11 C         138.9287  139.6924  168.7581 C.2     1  UNL1        0.0009
     12 C         139.9036  140.1960  167.7355 C.2     1  UNL1        0.0154
     13 C         142.9629  142.0254  166.2909 C.ar    1  UNL1        0.0990
     14 N         143.6438  142.6450  167.4752 N.ar    1  UNL1       -0.2393
     15 C         143.5334  142.2107  164.9160 C.ar    1  UNL1        0.0200
     16 C         144.8320  141.5562  164.5485 C.ar    1  UNL1        0.0025
     17 C         145.4025  141.7415  163.1736 C.ar    1  UNL1        0.0123
     18 C         144.6744  142.5813  162.1663 C.ar    1  UNL1        0.0682
     19 CL        145.2449  142.7665  160.7915 Cl      1  UNL1       -0.0814
     20 C         143.3757  143.2358  162.5339 C.ar    1  UNL1        0.0682
     21 CL        142.6475  144.0755  161.5267 Cl      1  UNL1       -0.0814
     22 C         142.8052  143.0505  163.9087 C.ar    1  UNL1        0.0138
     23 N         145.2486  143.2054  170.0591 N.am    1  UNL1       -0.2982
     24 C         143.7541  143.0793  170.0343 C.2     1  UNL1        0.2636
     25 O         142.9404  143.5726  171.1939 O.2     1  UNL1       -0.2685
     26 H         145.7826  142.8816  169.2980 H       1  UNL1        0.1498
     27 C         145.9294  143.8250  171.2434 C.3     1  UNL1        0.1068
     28 C         147.0896  144.7538  171.0405 C.3     1  UNL1        0.0901
     29 C         147.1950  146.3072  173.1205 C.3     1  UNL1        0.0859
     30 N         147.8376  145.2895  172.2252 N.3     1  UNL1       -0.2949
     31 H         148.0732  144.4886  172.8113 H       1  UNL1        0.1233
@<TRIPOS>BOND
     1    29    30    1
     2    30    28    1
     3    28    27    1
     4    27    23    1
     5    23    24   am
     6    24    25    2
     7    24     1    1
     8     1     2   ar
     9     2     3   ar
    10     3     4   ar
    11     4     5    1
    12     5     6    2
    13     6     7    1
    14     7     8    1
    15     7     9    1
    16     9    10    2
    17    10    11    1
    18    11    12    2
    19     4    13   ar
    20    13    15    1
    21    15    16   ar
    22    16    17   ar
    23    17    18   ar
    24    18    19    1
    25    18    20   ar
    26    20    21    1
    27    20    22   ar
    28    13    14   ar
    29    14     1   ar
    30    12     3    1
    31    22    15   ar
    32    12     6    1
    33    30    31    1
    34    23    26    1
@<TRIPOS>MOLECULE
*****
 31 34 0 0 0
SMALL
GASTEIGER

@<TRIPOS>ATOM
      1 C         140.2498  136.7451  155.1192 C.ar    1  UNL1        0.1345
      2 C         140.7743  135.3579  154.8943 C.ar    1  UNL1        0.0253
      3 C         141.9055  134.8389  155.7315 C.ar    1  UNL1        0.0219
      4 C         142.5122  135.7070  156.7937 C.ar    1  UNL1        0.0985
      5 N         143.6088  134.9286  157.4581 N.2     1  UNL1       -0.2478
      6 C         143.6798  133.5793  156.8066 C.2     1  UNL1        0.0627
      7 C         144.5671  132.3941  157.0472 C.3     1  UNL1        0.0622
      8 C         145.6198  132.4495  158.1143 C.3     1  UNL1        0.0110
      9 C         144.4016  131.1533  156.2207 C.2     1  UNL1       -0.0205
     10 C         143.3488  131.0979  155.1536 C.2     1  UNL1       -0.0042
     11 C         142.4616  132.2831  154.9130 C.2     1  UNL1        0.0009
     12 C         142.6271  133.5239  155.7395 C.2     1  UNL1        0.0154
     13 C         141.9877  137.0943  157.0186 C.ar    1  UNL1        0.0990
     14 N         140.8565  137.6133  156.1813 N.ar    1  UNL1       -0.2393
     15 C         142.5944  137.9625  158.0807 C.ar    1  UNL1        0.0200
     16 C         143.1310  139.3174  157.7258 C.ar    1  UNL1        0.0025
     17 C         143.7377  140.1856  158.7880 C.ar    1  UNL1        0.0123
     18 C         143.8079  139.6988  160.2051 C.ar    1  UNL1        0.0682
     19 CL        144.4146  140.5670  161.2672 Cl      1  UNL1       -0.0814
     20 C         143.2713  138.3437  160.5600 C.ar    1  UNL1        0.0682
     21 CL        143.3414  137.8569  161.9770 Cl      1  UNL1       -0.0814
     22 C         142.6646  137.4756  159.4978 C.ar    1  UNL1        0.0138
     23 N         137.7686  137.4833  154.8980 N.am    1  UNL1       -0.2982
     24 C         139.1186  137.2642  154.2819 C.2     1  UNL1        0.2636
     25 O         139.3375  137.5640  152.8286 O.2     1  UNL1       -0.2685
     26 H         137.6250  137.2865  155.8519 H       1  UNL1        0.1498
     27 C         136.6374  138.0023  154.0607 C.3     1  UNL1        0.1068
     28 C         135.9116  139.2493  154.4706 C.3     1  UNL1        0.0901
     29 C         133.7254  139.9706  155.6751 C.3     1  UNL1        0.0859
     30 N         135.0363  139.2415  155.6887 N.3     1  UNL1       -0.2949
     31 H         134.8278  138.2646  155.8953 H       1  UNL1        0.1233
@<TRIPOS>BOND
     1    29    30    1
     2    30    28    1
     3    28    27    1
     4    27    23    1
     5    23    24   am
     6    24    25    2
     7    24     1    1
     8     1     2   ar
     9     2     3   ar
    10     3     4   ar
    11     4     5    1
    12     5     6    2
    13     6     7    1
    14     7     8    1
    15     7     9    1
    16     9    10    2
    17    10    11    1
    18    11    12    2
    19     4    13   ar
    20    13    15    1
    21    15    16   ar
    22    16    17   ar
    23    17    18   ar
    24    18    19    1
    25    18    20   ar
    26    20    21    1
    27    20    22   ar
    28    13    14   ar
    29    14     1   ar
    30    12     3    1
    31    22    15   ar
    32    12     6    1
    33    30    31    1
    34    23    26    1
@<TRIPOS>MOLECULE
*****
 31 34 0 0 0
SMALL
GASTEIGER

@<TRIPOS>ATOM
      1 C         142.7534  137.8473  157.5181 C.ar    1  UNL1        0.1345
      2 C         142.4465  139.1833  156.9090 C.ar    1  UNL1        0.0253
      3 C         142.2456  140.3808  157.7897 C.ar    1  UNL1        0.0219
      4 C         142.3516  140.2423  159.2796 C.ar    1  UNL1        0.0985
      5 N         142.1056  141.5906  159.8891 N.2     1  UNL1       -0.2478
      6 C         141.8475  142.5624  158.7759 C.2     1  UNL1        0.0627
      7 C         141.5448  144.0315  158.7762 C.3     1  UNL1        0.0622
      8 C         141.4582  144.7792  160.0737 C.3     1  UNL1        0.0110
      9 C         141.3288  144.7529  157.4790 C.2     1  UNL1       -0.0205
     10 C         141.4153  144.0052  156.1815 C.2     1  UNL1       -0.0042
     11 C         141.7180  142.5361  156.1813 C.2     1  UNL1        0.0009
     12 C         141.9341  141.8147  157.4785 C.2     1  UNL1        0.0154
     13 C         142.6585  138.9063  159.8887 C.ar    1  UNL1        0.0990
     14 N         142.8594  137.7088  159.0080 N.ar    1  UNL1       -0.2393
     15 C         142.7645  138.7678  161.3785 C.ar    1  UNL1        0.0200
     16 C         141.6941  138.0468  162.1427 C.ar    1  UNL1        0.0025
     17 C         141.8001  137.9083  163.6326 C.ar    1  UNL1        0.0123
     18 C         142.9767  138.4908  164.3581 C.ar    1  UNL1        0.0682
     19 CL        143.0827  138.3523  165.8480 Cl      1  UNL1       -0.0814
     20 C         144.0472  139.2118  163.5939 C.ar    1  UNL1        0.0682
     21 CL        145.2238  139.7943  164.3194 Cl      1  UNL1       -0.0814
     22 C         143.9411  139.3503  162.1041 C.ar    1  UNL1        0.0138
     23 N         141.8550  135.6415  156.4802 N.am    1  UNL1       -0.2982
     24 C         142.9544  136.6498  156.6373 C.2     1  UNL1        0.2636
     25 O         144.2546  136.4608  155.9138 O.2     1  UNL1       -0.2685
     26 H         141.0016  135.7656  156.9551 H       1  UNL1        0.1498
     27 C         142.0560  134.4441  155.5994 C.3     1  UNL1        0.1068
     28 C         142.5614  133.1588  156.1848 C.3     1  UNL1        0.0901
     29 C         144.5065  133.1719  157.9072 C.3     1  UNL1        0.0859
     30 N         143.0378  133.1183  157.6065 N.3     1  UNL1       -0.2949
     31 H         142.6106  133.9126  158.0829 H       1  UNL1        0.1233
@<TRIPOS>BOND
     1    29    30    1
     2    30    28    1
     3    28    27    1
     4    27    23    1
     5    23    24   am
     6    24    25    2
     7    24     1    1
     8     1     2   ar
     9     2     3   ar
    10     3     4   ar
    11     4     5    1
    12     5     6    2
    13     6     7    1
    14     7     8    1
    15     7     9    1
    16     9    10    2
    17    10    11    1
    18    11    12    2
    19     4    13   ar
    20    13    15    1
    21    15    16   ar
    22    16    17   ar
    23    17    18   ar
    24    18    19    1
    25    18    20   ar
    26    20    21    1
    27    20    22   ar
    28    13    14   ar
    29    14     1   ar
    30    12     3    1
    31    22    15   ar
    32    12     6    1
    33    30    31    1
    34    23    26    1
@<TRIPOS>MOLECULE
*****
 31 34 0 0 0
SMALL
GASTEIGER

@<TRIPOS>ATOM
      1 C         136.3098  141.1085  156.2842 C.ar    1  UNL1        0.1345
      2 C         136.6628  142.4922  155.8249 C.ar    1  UNL1        0.0253
      3 C         137.9758  143.1011  156.2189 C.ar    1  UNL1        0.0219
      4 C         138.9358  142.3263  157.0721 C.ar    1  UNL1        0.0985
      5 N         140.1473  143.1811  157.2999 N.2     1  UNL1       -0.2478
      6 C         139.9359  144.4840  156.5875 C.2     1  UNL1        0.0627
      7 C         140.7921  145.7091  156.4608 C.3     1  UNL1        0.0622
      8 C         142.1342  145.7585  157.1289 C.3     1  UNL1        0.0110
      9 C         140.3062  146.8848  155.6660 C.2     1  UNL1       -0.0205
     10 C         138.9641  146.8353  154.9979 C.2     1  UNL1       -0.0042
     11 C         138.1079  145.6103  155.1246 C.2     1  UNL1        0.0009
     12 C         138.5938  144.4346  155.9193 C.2     1  UNL1        0.0154
     13 C         138.5829  140.9426  157.5314 C.ar    1  UNL1        0.0990
     14 N         137.2699  140.3337  157.1374 N.ar    1  UNL1       -0.2393
     15 C         139.5430  140.1679  158.3846 C.ar    1  UNL1        0.0200
     16 C         139.3909  140.1707  159.8768 C.ar    1  UNL1        0.0025
     17 C         140.3511  139.3959  160.7300 C.ar    1  UNL1        0.0123
     18 C         141.4632  138.6183  160.0909 C.ar    1  UNL1        0.0682
     19 CL        142.4233  137.8436  160.9442 Cl      1  UNL1       -0.0814
     20 C         141.6153  138.6155  158.5986 C.ar    1  UNL1        0.0682
     21 CL        142.7274  137.8378  157.9596 Cl      1  UNL1       -0.0814
     22 C         140.6552  139.3902  157.7455 C.ar    1  UNL1        0.0138
     23 N         133.7360  141.3062  155.9896 N.am    1  UNL1       -0.2982
     24 C         134.9968  140.4996  155.8902 C.2     1  UNL1        0.2636
     25 O         134.9446  139.0840  155.3968 O.2     1  UNL1       -0.2685
     26 H         133.7704  142.2353  156.3135 H       1  UNL1        0.1498
     27 C         132.4231  140.6973  155.5956 C.3     1  UNL1        0.1068
     28 C         131.4523  140.2595  156.6520 C.3     1  UNL1        0.0901
     29 C         132.7679  138.5457  158.0950 C.3     1  UNL1        0.0859
     30 N         131.9548  139.8018  157.9891 N.3     1  UNL1       -0.2949
     31 H         132.5301  140.5572  158.3618 H       1  UNL1        0.1233
@<TRIPOS>BOND
     1    29    30    1
     2    30    28    1
     3    28    27    1
     4    27    23    1
     5    23    24   am
     6    24    25    2
     7    24     1    1
     8     1     2   ar
     9     2     3   ar
    10     3     4   ar
    11     4     5    1
    12     5     6    2
    13     6     7    1
    14     7     8    1
    15     7     9    1
    16     9    10    2
    17    10    11    1
    18    11    12    2
    19     4    13   ar
    20    13    15    1
    21    15    16   ar
    22    16    17   ar
    23    17    18   ar
    24    18    19    1
    25    18    20   ar
    26    20    21    1
    27    20    22   ar
    28    13    14   ar
    29    14     1   ar
    30    12     3    1
    31    22    15   ar
    32    12     6    1
    33    30    31    1
    34    23    26    1
@<TRIPOS>MOLECULE
*****
 31 34 0 0 0
SMALL
GASTEIGER

@<TRIPOS>ATOM
      1 C         142.4965  137.9548  157.5256 C.ar    1  UNL1        0.1345
      2 C         142.6313  139.3830  157.0873 C.ar    1  UNL1        0.0253
      3 C         142.1422  140.4892  157.9745 C.ar    1  UNL1        0.0219
      4 C         141.5182  140.1671  159.3000 C.ar    1  UNL1        0.0985
      5 N         141.1309  141.4592  159.9561 N.2     1  UNL1       -0.2478
      6 C         141.5154  142.5798  159.0361 C.2     1  UNL1        0.0627
      7 C         141.3771  144.0686  159.1553 C.3     1  UNL1        0.0622
      8 C         140.7521  144.6682  160.3800 C.3     1  UNL1        0.0110
      9 C         141.8639  144.9579  158.0498 C.2     1  UNL1       -0.0205
     10 C         142.4890  144.3584  156.8251 C.2     1  UNL1       -0.0042
     11 C         142.6272  142.8696  156.7059 C.2     1  UNL1        0.0009
     12 C         142.1404  141.9803  157.8114 C.2     1  UNL1        0.0154
     13 C         141.3834  138.7389  159.7383 C.ar    1  UNL1        0.0990
     14 N         141.8726  137.6328  158.8511 N.ar    1  UNL1       -0.2393
     15 C         140.7595  138.4169  161.0638 C.ar    1  UNL1        0.0200
     16 C         139.2685  138.3061  161.1838 C.ar    1  UNL1        0.0025
     17 C         138.6445  137.9840  162.5094 C.ar    1  UNL1        0.0123
     18 C         139.5117  137.7727  163.7149 C.ar    1  UNL1        0.0682
     19 CL        138.8877  137.4507  165.0404 Cl      1  UNL1       -0.0814
     20 C         141.0028  137.8835  163.5949 C.ar    1  UNL1        0.0682
     21 CL        141.8700  137.6722  164.8005 Cl      1  UNL1       -0.0814
     22 C         141.6267  138.2055  162.2695 C.ar    1  UNL1        0.0138
     23 N         142.1590  135.6100  156.4589 N.am    1  UNL1       -0.2982
     24 C         142.9857  136.8486  156.6384 C.2     1  UNL1        0.2636
     25 O         144.3016  136.9813  155.9307 O.2     1  UNL1       -0.2685
     26 H         141.2954  135.5229  156.9234 H       1  UNL1        0.1498
     27 C         142.6482  134.5039  155.5716 C.3     1  UNL1        0.1068
     28 C         142.6561  133.0896  156.0712 C.3     1  UNL1        0.0901
     29 C         144.4548  133.1288  157.9457 C.3     1  UNL1        0.0859
     30 N         143.0672  132.7952  157.4834 N.3     1  UNL1       -0.2949
     31 H         142.4244  133.3050  158.0895 H       1  UNL1        0.1233
@<TRIPOS>BOND
     1    29    30    1
     2    30    28    1
     3    28    27    1
     4    27    23    1
     5    23    24   am
     6    24    25    2
     7    24     1    1
     8     1     2   ar
     9     2     3   ar
    10     3     4   ar
    11     4     5    1
    12     5     6    2
    13     6     7    1
    14     7     8    1
    15     7     9    1
    16     9    10    2
    17    10    11    1
    18    11    12    2
    19     4    13   ar
    20    13    15    1
    21    15    16   ar
    22    16    17   ar
    23    17    18   ar
    24    18    19    1
    25    18    20   ar
    26    20    21    1
    27    20    22   ar
    28    13    14   ar
    29    14     1   ar
    30    12     3    1
    31    22    15   ar
    32    12     6    1
    33    30    31    1
    34    23    26    1
@<TRIPOS>MOLECULE
*****
 31 34 0 0 0
SMALL
GASTEIGER

@<TRIPOS>ATOM
      1 C         144.0921  141.8455  159.2878 C.ar    1  UNL1        0.1345
      2 C         143.1295  142.9955  159.3160 C.ar    1  UNL1        0.0253
      3 C         142.3270  143.2718  160.5528 C.ar    1  UNL1        0.0219
      4 C         142.4872  142.3979  161.7614 C.ar    1  UNL1        0.0985
      5 N         141.5675  142.9111  162.8295 N.2     1  UNL1       -0.2478
      6 C         140.8389  144.1020  162.2810 C.2     1  UNL1        0.0627
      7 C         139.8087  145.0123  162.8811 C.3     1  UNL1        0.0622
      8 C         139.3393  144.7894  164.2882 C.3     1  UNL1        0.0110
      9 C         139.2480  146.1455  162.0740 C.2     1  UNL1       -0.0205
     10 C         139.7174  146.3684  160.6669 C.2     1  UNL1       -0.0042
     11 C         140.7476  145.4581  160.0669 C.2     1  UNL1        0.0009
     12 C         141.3084  144.3250  160.8739 C.2     1  UNL1        0.0154
     13 C         143.4498  141.2479  161.7332 C.ar    1  UNL1        0.0990
     14 N         144.2523  140.9717  160.4964 N.ar    1  UNL1       -0.2393
     15 C         143.6100  140.3741  162.9419 C.ar    1  UNL1        0.0200
     16 C         144.9135  140.3516  163.6836 C.ar    1  UNL1        0.0025
     17 C         145.0736  139.4777  164.8923 C.ar    1  UNL1        0.0123
     18 C         143.9302  138.6264  165.3591 C.ar    1  UNL1        0.0682
     19 CL        144.0904  137.7525  166.5677 Cl      1  UNL1       -0.0814
     20 C         142.6267  138.6489  164.6173 C.ar    1  UNL1        0.0682
     21 CL        141.4833  137.7975  165.0840 Cl      1  UNL1       -0.0814
     22 C         142.4666  139.5227  163.4087 C.ar    1  UNL1        0.0138
     23 N         145.8144  142.6201  157.5035 N.am    1  UNL1       -0.2982
     24 C         144.8946  141.5693  158.0509 C.2     1  UNL1        0.2636
     25 O         144.7771  140.2422  157.3616 O.2     1  UNL1       -0.2685
     26 H         145.8915  143.4910  157.9559 H       1  UNL1        0.1498
     27 C         146.6169  142.3438  156.2666 C.3     1  UNL1        0.1068
     28 C         146.0360  142.6360  154.9149 C.3     1  UNL1        0.0901
     29 C         145.7440  144.6471  153.2962 C.3     1  UNL1        0.0859
     30 N         145.4714  143.9937  154.6187 N.3     1  UNL1       -0.2949
     31 H         144.4581  143.9167  154.7058 H       1  UNL1        0.1233
@<TRIPOS>BOND
     1    29    30    1
     2    30    28    1
     3    28    27    1
     4    27    23    1
     5    23    24   am
     6    24    25    2
     7    24     1    1
     8     1     2   ar
     9     2     3   ar
    10     3     4   ar
    11     4     5    1
    12     5     6    2
    13     6     7    1
    14     7     8    1
    15     7     9    1
    16     9    10    2
    17    10    11    1
    18    11    12    2
    19     4    13   ar
    20    13    15    1
    21    15    16   ar
    22    16    17   ar
    23    17    18   ar
    24    18    19    1
    25    18    20   ar
    26    20    21    1
    27    20    22   ar
    28    13    14   ar
    29    14     1   ar
    30    12     3    1
    31    22    15   ar
    32    12     6    1
    33    30    31    1
    34    23    26    1
@<TRIPOS>MOLECULE
*****
 31 34 0 0 0
SMALL
GASTEIGER

@<TRIPOS>ATOM
      1 C         139.6563  144.0926  158.3059 C.ar    1  UNL1        0.1345
      2 C         138.7423  143.0387  157.7547 C.ar    1  UNL1        0.0253
      3 C         138.0723  143.2459  156.4287 C.ar    1  UNL1        0.0219
      4 C         138.3163  144.5069  155.6540 C.ar    1  UNL1        0.0985
      5 N         137.5219  144.4316  154.3839 N.2     1  UNL1       -0.2478
      6 C         136.7869  143.1241  154.3736 C.2     1  UNL1        0.0627
      7 C         135.8519  142.5061  153.3767 C.3     1  UNL1        0.0622
      8 C         135.5117  143.2389  152.1129 C.3     1  UNL1        0.0110
      9 C         135.2570  141.1552  153.6437 C.2     1  UNL1       -0.0205
     10 C         135.5972  140.4224  154.9075 C.2     1  UNL1       -0.0042
     11 C         136.5322  141.0404  155.9043 C.2     1  UNL1        0.0009
     12 C         137.1271  142.3912  155.6374 C.2     1  UNL1        0.0154
     13 C         139.2303  145.5608  156.2052 C.ar    1  UNL1        0.0990
     14 N         139.9003  145.3537  157.5312 N.ar    1  UNL1       -0.2393
     15 C         139.4743  146.8219  155.4305 C.ar    1  UNL1        0.0200
     16 C         140.3390  146.7939  154.2052 C.ar    1  UNL1        0.0025
     17 C         140.5830  148.0551  153.4305 C.ar    1  UNL1        0.0123
     18 C         139.9623  149.3441  153.8812 C.ar    1  UNL1        0.0682
     19 CL        140.2063  150.6052  153.1065 Cl      1  UNL1       -0.0814
     20 C         139.0976  149.3721  155.1066 C.ar    1  UNL1        0.0682
     21 CL        138.4770  150.6611  155.5573 Cl      1  UNL1       -0.0814
     22 C         138.8537  148.1110  155.8812 C.ar    1  UNL1        0.0138
     23 N         139.6604  144.3569  160.8905 N.am    1  UNL1       -0.2982
     24 C         140.3264  143.8854  159.6319 C.2     1  UNL1        0.2636
     25 O         141.6624  143.2068  159.6991 O.2     1  UNL1       -0.2685
     26 H         138.7835  144.8022  160.8464 H       1  UNL1        0.1498
     27 C         140.3304  144.1497  162.2165 C.3     1  UNL1        0.1068
     28 C         141.4563  145.0474  162.6363 C.3     1  UNL1        0.0901
     29 C         143.9821  144.4918  162.8855 C.3     1  UNL1        0.0859
     30 N         142.8161  144.8807  162.0255 N.3     1  UNL1       -0.2949
     31 H         142.7295  144.1638  161.3051 H       1  UNL1        0.1233
@<TRIPOS>BOND
     1    29    30    1
     2    30    28    1
     3    28    27    1
     4    27    23    1
     5    23    24   am
     6    24    25    2
     7    24     1    1
     8     1     2   ar
     9     2     3   ar
    10     3     4   ar
    11     4     5    1
    12     5     6    2
    13     6     7    1
    14     7     8    1
    15     7     9    1
    16     9    10    2
    17    10    11    1
    18    11    12    2
    19     4    13   ar
    20    13    15    1
    21    15    16   ar
    22    16    17   ar
    23    17    18   ar
    24    18    19    1
    25    18    20   ar
    26    20    21    1
    27    20    22   ar
    28    13    14   ar
    29    14     1   ar
    30    12     3    1
    31    22    15   ar
    32    12     6    1
    33    30    31    1
    34    23    26    1
@<TRIPOS>MOLECULE
*****
 31 34 0 0 0
SMALL
GASTEIGER

@<TRIPOS>ATOM
      1 C         139.7811  139.3835  158.0219 C.ar    1  UNL1        0.1345
      2 C         139.4507  139.3332  159.4842 C.ar    1  UNL1        0.0253
      3 C         139.0275  140.5811  160.2008 C.ar    1  UNL1        0.0219
      4 C         138.9346  141.8793  159.4552 C.ar    1  UNL1        0.0985
      5 N         138.4922  142.9380  160.4212 N.2     1  UNL1       -0.2478
      6 C         138.3115  142.2941  161.7639 C.2     1  UNL1        0.0627
      7 C         137.8886  142.8461  163.0930 C.3     1  UNL1        0.0622
      8 C         137.5577  144.3028  163.2292 C.3     1  UNL1        0.0110
      9 C         137.7964  141.9413  164.2858 C.2     1  UNL1       -0.0205
     10 C         138.1273  140.4846  164.1496 C.2     1  UNL1       -0.0042
     11 C         138.5503  139.9327  162.8206 C.2     1  UNL1        0.0009
     12 C         138.6424  140.8374  161.6277 C.2     1  UNL1        0.0154
     13 C         139.2650  141.9296  157.9929 C.ar    1  UNL1        0.0990
     14 N         139.6882  140.6817  157.2762 N.ar    1  UNL1       -0.2393
     15 C         139.1722  143.2278  157.2472 C.ar    1  UNL1        0.0200
     16 C         140.0924  144.3600  157.5951 C.ar    1  UNL1        0.0025
     17 C         139.9995  145.6582  156.8494 C.ar    1  UNL1        0.0123
     18 C         138.9863  145.8242  155.7558 C.ar    1  UNL1        0.0682
     19 CL        138.8935  147.1224  155.0101 Cl      1  UNL1       -0.0814
     20 C         138.0660  144.6919  155.4079 C.ar    1  UNL1        0.0682
     21 CL        137.0529  144.8578  154.3143 Cl      1  UNL1       -0.0814
     22 C         138.1590  143.3938  156.1535 C.ar    1  UNL1        0.0138
     23 N         141.6414  137.7063  157.3315 N.am    1  UNL1       -0.2982
     24 C         140.2044  138.1355  157.3052 C.2     1  UNL1        0.2636
     25 O         139.1905  137.3169  156.5623 O.2     1  UNL1       -0.2685
     26 H         142.3068  138.2436  157.8191 H       1  UNL1        0.1498
     27 C         142.0646  136.4584  156.6148 C.3     1  UNL1        0.1068
     28 C         143.4557  136.3440  156.0656 C.3     1  UNL1        0.0901
     29 C         143.2848  133.7774  155.6997 C.3     1  UNL1        0.0859
     30 N         144.1134  134.9998  155.9632 N.3     1  UNL1       -0.2949
     31 H         144.7947  135.0623  155.2067 H       1  UNL1        0.1233
@<TRIPOS>BOND
     1    29    30    1
     2    30    28    1
     3    28    27    1
     4    27    23    1
     5    23    24   am
     6    24    25    2
     7    24     1    1
     8     1     2   ar
     9     2     3   ar
    10     3     4   ar
    11     4     5    1
    12     5     6    2
    13     6     7    1
    14     7     8    1
    15     7     9    1
    16     9    10    2
    17    10    11    1
    18    11    12    2
    19     4    13   ar
    20    13    15    1
    21    15    16   ar
    22    16    17   ar
    23    17    18   ar
    24    18    19    1
    25    18    20   ar
    26    20    21    1
    27    20    22   ar
    28    13    14   ar
    29    14     1   ar
    30    12     3    1
    31    22    15   ar
    32    12     6    1
    33    30    31    1
    34    23    26    1
@<TRIPOS>MOLECULE
*****
 31 34 0 0 0
SMALL
GASTEIGER

@<TRIPOS>ATOM
      1 C         143.9131  142.2381  157.9183 C.ar    1  UNL1        0.1345
      2 C         144.0420  142.8005  159.3029 C.ar    1  UNL1        0.0253
      3 C         142.8271  143.3049  160.0236 C.ar    1  UNL1        0.0219
      4 C         141.4832  143.2470  159.3597 C.ar    1  UNL1        0.0985
      5 N         140.4717  143.8149  160.3106 N.2     1  UNL1       -0.2478
      6 C         141.1903  144.2238  161.5622 C.2     1  UNL1        0.0627
      7 C         140.7072  144.8424  162.8404 C.3     1  UNL1        0.0622
      8 C         139.2514  145.1576  163.0178 C.3     1  UNL1        0.0110
      9 C         141.6798  145.1458  163.9412 C.2     1  UNL1       -0.0205
     10 C         143.1355  144.8306  163.7639 C.2     1  UNL1       -0.0042
     11 C         143.6186  144.2120  162.4856 C.2     1  UNL1        0.0009
     12 C         142.6460  143.9086  161.3848 C.2     1  UNL1        0.0154
     13 C         141.3543  142.6847  157.9751 C.ar    1  UNL1        0.0990
     14 N         142.5693  142.1802  157.2544 N.ar    1  UNL1       -0.2393
     15 C         140.0105  142.6268  157.3112 C.ar    1  UNL1        0.0200
     16 C         139.1888  141.3744  157.3891 C.ar    1  UNL1        0.0025
     17 C         137.8449  141.3165  156.7251 C.ar    1  UNL1        0.0123
     18 C         137.3229  142.5111  155.9833 C.ar    1  UNL1        0.0682
     19 CL        135.9790  142.4532  155.3194 Cl      1  UNL1       -0.0814
     20 C         138.1446  143.7636  155.9054 C.ar    1  UNL1        0.0682
     21 CL        137.6225  144.9582  155.1635 Cl      1  UNL1       -0.0814
     22 C         139.4884  143.8214  156.5693 C.ar    1  UNL1        0.0138
     23 N         146.2366  142.6799  156.8429 N.am    1  UNL1       -0.2982
     24 C         145.1281  141.7336  157.1975 C.2     1  UNL1        0.2636
     25 O         145.2344  140.2829  156.8315 O.2     1  UNL1       -0.2685
     26 H         146.1667  143.6321  157.0832 H       1  UNL1        0.1498
     27 C         147.4515  142.1754  156.1222 C.3     1  UNL1        0.1068
     28 C         147.4222  142.0029  154.6325 C.3     1  UNL1        0.0901
     29 C         145.1698  141.6457  153.3877 C.3     1  UNL1        0.0859
     30 N         146.4170  141.0842  154.0036 N.3     1  UNL1       -0.2949
     31 H         146.9049  140.5737  153.2674 H       1  UNL1        0.1233
@<TRIPOS>BOND
     1    29    30    1
     2    30    28    1
     3    28    27    1
     4    27    23    1
     5    23    24   am
     6    24    25    2
     7    24     1    1
     8     1     2   ar
     9     2     3   ar
    10     3     4   ar
    11     4     5    1
    12     5     6    2
    13     6     7    1
    14     7     8    1
    15     7     9    1
    16     9    10    2
    17    10    11    1
    18    11    12    2
    19     4    13   ar
    20    13    15    1
    21    15    16   ar
    22    16    17   ar
    23    17    18   ar
    24    18    19    1
    25    18    20   ar
    26    20    21    1
    27    20    22   ar
    28    13    14   ar
    29    14     1   ar
    30    12     3    1
    31    22    15   ar
    32    12     6    1
    33    30    31    1
    34    23    26    1
