@<TRIPOS>MOLECULE
*****
 36 39 0 0 0
SMALL
GASTEIGER

@<TRIPOS>ATOM
      1 C         141.2180  142.6939  164.7470 C.ar    1  UNL1        0.0538
      2 C         141.0148  144.1393  164.4010 C.ar    1  UNL1        0.0058
      3 C         140.7836  144.5438  162.9752 C.ar    1  UNL1        0.0147
      4 C         140.7555  143.5030  161.8955 C.ar    1  UNL1        0.0479
      5 C         140.9587  142.0577  162.2415 C.ar    1  UNL1        0.0147
      6 C         141.1899  141.6531  163.6672 C.ar    1  UNL1        0.0058
      7 N         140.5243  143.9076  160.4696 N.pl3   1  UNL1       -0.3041
      8 C         140.7252  145.3344  160.0529 C.3     1  UNL1        0.1123
      9 C         140.4939  145.7390  158.6271 C.3     1  UNL1        0.1151
     10 N         140.0619  144.7167  157.6181 N.am    1  UNL1       -0.2726
     11 C         139.8306  145.1212  156.1923 C.2     1  UNL1        0.2493
     12 O         139.3986  144.0989  155.1833 O.2     1  UNL1       -0.2699
     13 C         139.8610  143.2898  158.0349 C.3     1  UNL1        0.1151
     14 C         140.0922  142.8852  159.4606 C.3     1  UNL1        0.1123
     15 C         140.0315  146.5481  155.7755 C.2     1  UNL1        0.0579
     16 C         138.8447  147.4247  155.5055 C.2     1  UNL1        0.0047
     17 C         139.0456  148.8516  155.0888 C.ar    1  UNL1        0.0003
     18 C         138.4325  149.9607  155.8913 C.ar    1  UNL1        0.0023
     19 C         138.6334  151.3876  155.4745 C.ar    1  UNL1        0.0296
     20 C         139.4473  151.7054  154.2553 C.ar    1  UNL1        0.1401
     21 F         139.6482  153.1322  153.8385 F       1  UNL1       -0.2042
     22 C         140.0604  150.5962  153.4527 C.ar    1  UNL1        0.0296
     23 C         139.8595  149.1693  153.8695 C.ar    1  UNL1        0.0023
     24 N         140.2889  141.8972  167.0388 N.am    1  UNL1       -0.2794
     25 C         141.4492  142.2894  166.1728 C.2     1  UNL1        0.2495
     26 O         142.8408  142.2770  166.7326 O.2     1  UNL1       -0.2698
     27 H         139.3756  141.9054  166.6713 H       1  UNL1        0.1552
     28 N         140.1209  143.9447  169.2250 N.pl3   1  UNL1       -0.3560
     29 C         140.4361  142.5164  169.5577 C.ar    1  UNL1        0.0552
     30 C         140.6674  142.1119  170.9834 C.ar    1  UNL1        0.0153
     31 C         140.9826  140.6836  171.3161 C.ar    1  UNL1        0.0013
     32 C         141.0666  139.6599  170.2230 C.ar    1  UNL1        0.0014
     33 C         140.8354  140.0644  168.7973 C.ar    1  UNL1        0.0159
     34 C         140.5202  141.4927  168.4646 C.ar    1  UNL1        0.0636
     35 H         140.0657  144.6166  169.9425 H       1  UNL1        0.1424
     36 H         139.9691  144.2102  168.2892 H       1  UNL1        0.1424
@<TRIPOS>BOND
     1    28    29    1
     2    29    30   ar
     3    30    31   ar
     4    31    32   ar
     5    32    33   ar
     6    33    34   ar
     7    34    24    1
     8    24    25   am
     9    25    26    2
    10    25     1    1
    11     1     2   ar
    12     2     3   ar
    13     3     4   ar
    14     4     7    1
    15     7     8    1
    16     8     9    1
    17     9    10    1
    18    10    11   am
    19    11    12    2
    20    11    15    1
    21    15    16    2
    22    16    17    1
    23    17    18   ar
    24    18    19   ar
    25    19    20   ar
    26    20    21    1
    27    20    22   ar
    28    22    23   ar
    29    10    13    1
    30    13    14    1
    31     4     5   ar
    32     5     6   ar
    33    34    29   ar
    34     6     1   ar
    35    14     7    1
    36    23    17   ar
    37    28    35    1
    38    28    36    1
    39    24    27    1
@<TRIPOS>MOLECULE
*****
 36 39 0 0 0
SMALL
GASTEIGER

@<TRIPOS>ATOM
      1 C         141.5938  137.3285  157.2275 C.ar    1  UNL1        0.0538
      2 C         142.5972  137.7579  158.2564 C.ar    1  UNL1        0.0058
      3 C         142.2000  138.7217  159.3350 C.ar    1  UNL1        0.0147
      4 C         140.7993  139.2561  159.3846 C.ar    1  UNL1        0.0479
      5 C         139.7959  138.8266  158.3557 C.ar    1  UNL1        0.0147
      6 C         140.1931  137.8628  157.2772 C.ar    1  UNL1        0.0058
      7 N         140.4021  140.2199  160.4632 N.pl3   1  UNL1       -0.3041
      8 C         141.2733  140.3937  161.6718 C.3     1  UNL1        0.1123
      9 C         140.8760  141.3575  162.7504 C.3     1  UNL1        0.1151
     10 N         139.6076  142.1474  162.6203 N.am    1  UNL1       -0.2726
     11 C         139.2103  143.1113  163.6989 C.2     1  UNL1        0.2493
     12 O         137.9419  143.9012  163.5688 O.2     1  UNL1       -0.2699
     13 C         138.7364  141.9736  161.4117 C.3     1  UNL1        0.1151
     14 C         139.1336  141.0099  160.3331 C.3     1  UNL1        0.1123
     15 C         140.0815  143.2851  164.9075 C.2     1  UNL1        0.0579
     16 C         139.9405  142.3527  166.0740 C.2     1  UNL1        0.0047
     17 C         140.8118  142.5265  167.2826 C.ar    1  UNL1        0.0003
     18 C         142.2426  142.0779  167.2465 C.ar    1  UNL1        0.0023
     19 C         143.1138  142.2517  168.4552 C.ar    1  UNL1        0.0296
     20 C         142.5542  142.8741  169.6999 C.ar    1  UNL1        0.1401
     21 F         143.4254  143.0479  170.9085 F       1  UNL1       -0.2042
     22 C         141.1232  143.3228  169.7360 C.ar    1  UNL1        0.0296
     23 C         140.2520  143.1490  168.5274 C.ar    1  UNL1        0.0023
     24 N         141.0561  135.2633  155.7457 N.am    1  UNL1       -0.2794
     25 C         141.9911  136.3647  156.1489 C.2     1  UNL1        0.2495
     26 O         143.3234  136.5023  155.4737 O.2     1  UNL1       -0.2698
     27 H         140.1816  135.1729  156.1889 H       1  UNL1        0.1552
     28 N         142.4887  132.7248  156.4556 N.pl3   1  UNL1       -0.3560
     29 C         142.1696  133.0302  155.0221 C.ar    1  UNL1        0.0552
     30 C         142.5669  132.0665  153.9435 C.ar    1  UNL1        0.0153
     31 C         142.2478  132.3719  152.5100 C.ar    1  UNL1        0.0013
     32 C         141.5315  133.6411  152.1551 C.ar    1  UNL1        0.0014
     33 C         141.1343  134.6049  153.2336 C.ar    1  UNL1        0.0159
     34 C         141.4533  134.2994  154.6671 C.ar    1  UNL1        0.0636
     35 H         142.9588  131.8918  156.6885 H       1  UNL1        0.1424
     36 H         142.2279  133.3574  157.1635 H       1  UNL1        0.1424
@<TRIPOS>BOND
     1    28    29    1
     2    29    30   ar
     3    30    31   ar
     4    31    32   ar
     5    32    33   ar
     6    33    34   ar
     7    34    24    1
     8    24    25   am
     9    25    26    2
    10    25     1    1
    11     1     2   ar
    12     2     3   ar
    13     3     4   ar
    14     4     7    1
    15     7     8    1
    16     8     9    1
    17     9    10    1
    18    10    11   am
    19    11    12    2
    20    11    15    1
    21    15    16    2
    22    16    17    1
    23    17    18   ar
    24    18    19   ar
    25    19    20   ar
    26    20    21    1
    27    20    22   ar
    28    22    23   ar
    29    10    13    1
    30    13    14    1
    31     4     5   ar
    32     5     6   ar
    33    34    29   ar
    34     6     1   ar
    35    14     7    1
    36    23    17   ar
    37    28    35    1
    38    28    36    1
    39    24    27    1
@<TRIPOS>MOLECULE
*****
 36 39 0 0 0
SMALL
GASTEIGER

@<TRIPOS>ATOM
      1 C         140.9811  142.6581  164.0495 C.ar    1  UNL1        0.0538
      2 C         140.2460  141.7844  163.0768 C.ar    1  UNL1        0.0058
      3 C         140.0687  142.2286  161.6552 C.ar    1  UNL1        0.0147
      4 C         140.6265  143.5467  161.2062 C.ar    1  UNL1        0.0479
      5 C         141.3616  144.4204  162.1789 C.ar    1  UNL1        0.0147
      6 C         141.5389  143.9762  163.6006 C.ar    1  UNL1        0.0058
      7 N         140.4492  143.9910  159.7845 N.pl3   1  UNL1       -0.3041
      8 C         140.6049  145.4393  159.4264 C.3     1  UNL1        0.1123
      9 C         140.4277  145.8836  158.0048 C.3     1  UNL1        0.1151
     10 N         140.0946  144.8797  156.9412 N.am    1  UNL1       -0.2726
     11 C         139.9174  145.3240  155.5195 C.2     1  UNL1        0.2493
     12 O         139.5843  144.3201  154.4560 O.2     1  UNL1       -0.2699
     13 C         139.9389  143.4314  157.2993 C.3     1  UNL1        0.1151
     14 C         140.1161  142.9870  158.7210 C.3     1  UNL1        0.1123
     15 C         140.0731  146.7723  155.1614 C.2     1  UNL1        0.0579
     16 C         138.8932  147.6952  155.2391 C.2     1  UNL1        0.0047
     17 C         139.0490  149.1434  154.8810 C.ar    1  UNL1        0.0003
     18 C         139.7574  149.5315  153.6172 C.ar    1  UNL1        0.0023
     19 C         139.9132  150.9798  153.2591 C.ar    1  UNL1        0.0296
     20 C         139.3605  152.0400  154.1649 C.ar    1  UNL1        0.1401
     21 F         139.5163  153.4883  153.8068 F       1  UNL1       -0.2042
     22 C         138.6520  151.6519  155.4288 C.ar    1  UNL1        0.0296
     23 C         138.4963  150.2036  155.7869 C.ar    1  UNL1        0.0023
     24 N         142.5221  141.8497  165.9787 N.am    1  UNL1       -0.2794
     25 C         141.1583  142.2138  165.4713 C.2     1  UNL1        0.2495
     26 O         139.9718  142.1337  166.3855 O.2     1  UNL1       -0.2698
     27 H         143.3008  141.9023  165.3787 H       1  UNL1        0.1552
     28 N         141.9408  139.0083  166.7459 N.pl3   1  UNL1       -0.3560
     29 C         142.4087  139.9847  167.7840 C.ar    1  UNL1        0.0552
     30 C         142.5860  139.5404  169.2057 C.ar    1  UNL1        0.0153
     31 C         143.0540  140.5168  170.2438 C.ar    1  UNL1        0.0013
     32 C         143.3446  141.9375  169.8602 C.ar    1  UNL1        0.0014
     33 C         143.1673  142.3818  168.4385 C.ar    1  UNL1        0.0159
     34 C         142.6994  141.4053  167.4004 C.ar    1  UNL1        0.0636
     35 H         141.7500  138.0758  166.9977 H       1  UNL1        0.1424
     36 H         141.8244  139.2999  165.8128 H       1  UNL1        0.1424
@<TRIPOS>BOND
     1    28    29    1
     2    29    30   ar
     3    30    31   ar
     4    31    32   ar
     5    32    33   ar
     6    33    34   ar
     7    34    24    1
     8    24    25   am
     9    25    26    2
    10    25     1    1
    11     1     2   ar
    12     2     3   ar
    13     3     4   ar
    14     4     7    1
    15     7     8    1
    16     8     9    1
    17     9    10    1
    18    10    11   am
    19    11    12    2
    20    11    15    1
    21    15    16    2
    22    16    17    1
    23    17    18   ar
    24    18    19   ar
    25    19    20   ar
    26    20    21    1
    27    20    22   ar
    28    22    23   ar
    29    10    13    1
    30    13    14    1
    31     4     5   ar
    32     5     6   ar
    33    34    29   ar
    34     6     1   ar
    35    14     7    1
    36    23    17   ar
    37    28    35    1
    38    28    36    1
    39    24    27    1
@<TRIPOS>MOLECULE
*****
 36 39 0 0 0
SMALL
GASTEIGER

@<TRIPOS>ATOM
      1 C         140.8735  140.7059  164.0762 C.ar    1  UNL1        0.0538
      2 C         141.2904  141.6157  162.9589 C.ar    1  UNL1        0.0058
      3 C         141.6442  141.0437  161.6182 C.ar    1  UNL1        0.0147
      4 C         141.5811  139.5618  161.3948 C.ar    1  UNL1        0.0479
      5 C         141.1642  138.6520  162.5121 C.ar    1  UNL1        0.0147
      6 C         140.8104  139.2240  163.8528 C.ar    1  UNL1        0.0058
      7 N         141.9349  138.9897  160.0540 N.pl3   1  UNL1       -0.3041
      8 C         142.5384  137.6198  159.9587 C.3     1  UNL1        0.1123
      9 C         142.8922  137.0477  158.6180 C.3     1  UNL1        0.1151
     10 N         142.6425  137.8455  157.3726 N.am    1  UNL1       -0.2726
     11 C         142.9963  137.2734  156.0319 C.2     1  UNL1        0.2493
     12 O         142.7467  138.0713  154.7865 O.2     1  UNL1       -0.2699
     13 C         142.0390  139.2155  157.4679 C.3     1  UNL1        0.1151
     14 C         141.6852  139.7876  158.8086 C.3     1  UNL1        0.1123
     15 C         143.5998  135.9035  155.9366 C.2     1  UNL1        0.0579
     16 C         142.7587  134.7424  155.4958 C.2     1  UNL1        0.0047
     17 C         143.3621  133.3725  155.4005 C.ar    1  UNL1        0.0003
     18 C         142.9381  132.4407  154.3042 C.ar    1  UNL1        0.0023
     19 C         143.5416  131.0708  154.2089 C.ar    1  UNL1        0.0296
     20 C         144.5691  130.6326  155.2099 C.ar    1  UNL1        0.1401
     21 F         145.1725  129.2627  155.1147 F       1  UNL1       -0.2042
     22 C         144.9932  131.5644  156.3063 C.ar    1  UNL1        0.0296
     23 C         144.3897  132.9343  156.4016 C.ar    1  UNL1        0.0023
     24 N         141.2356  140.8044  166.6471 N.am    1  UNL1       -0.2794
     25 C         140.5197  141.2780  165.4170 C.2     1  UNL1        0.2495
     26 O         139.4499  142.3236  165.5276 O.2     1  UNL1       -0.2698
     27 H         141.9378  140.1181  166.5745 H       1  UNL1        0.1552
     28 N         139.0447  139.5624  168.2771 N.pl3   1  UNL1       -0.3560
     29 C         139.7864  140.7555  168.8028 C.ar    1  UNL1        0.0552
     30 C         139.4326  141.3276  170.1435 C.ar    1  UNL1        0.0153
     31 C         140.1743  142.5207  170.6692 C.ar    1  UNL1        0.0013
     32 C         141.2698  143.1417  169.8543 C.ar    1  UNL1        0.0014
     33 C         141.6235  142.5696  168.5136 C.ar    1  UNL1        0.0159
     34 C         140.8818  141.3765  167.9879 C.ar    1  UNL1        0.0636
     35 H         138.3257  139.1548  168.8121 H       1  UNL1        0.1424
     36 H         139.2769  139.1869  167.3972 H       1  UNL1        0.1424
@<TRIPOS>BOND
     1    28    29    1
     2    29    30   ar
     3    30    31   ar
     4    31    32   ar
     5    32    33   ar
     6    33    34   ar
     7    34    24    1
     8    24    25   am
     9    25    26    2
    10    25     1    1
    11     1     2   ar
    12     2     3   ar
    13     3     4   ar
    14     4     7    1
    15     7     8    1
    16     8     9    1
    17     9    10    1
    18    10    11   am
    19    11    12    2
    20    11    15    1
    21    15    16    2
    22    16    17    1
    23    17    18   ar
    24    18    19   ar
    25    19    20   ar
    26    20    21    1
    27    20    22   ar
    28    22    23   ar
    29    10    13    1
    30    13    14    1
    31     4     5   ar
    32     5     6   ar
    33    34    29   ar
    34     6     1   ar
    35    14     7    1
    36    23    17   ar
    37    28    35    1
    38    28    36    1
    39    24    27    1
@<TRIPOS>MOLECULE
*****
 36 39 0 0 0
SMALL
GASTEIGER

@<TRIPOS>ATOM
      1 C         142.6622  140.8618  164.4640 C.ar    1  UNL1        0.0538
      2 C         141.6932  141.3462  163.4265 C.ar    1  UNL1        0.0058
      3 C         141.7939  140.8478  162.0154 C.ar    1  UNL1        0.0147
      4 C         142.8636  139.8650  161.6417 C.ar    1  UNL1        0.0479
      5 C         143.8326  139.3805  162.6792 C.ar    1  UNL1        0.0147
      6 C         143.7319  139.8789  164.0903 C.ar    1  UNL1        0.0058
      7 N         142.9643  139.3665  160.2305 N.pl3   1  UNL1       -0.3041
      8 C         142.5142  137.9762  159.8922 C.3     1  UNL1        0.1123
      9 C         142.6149  137.4777  158.4811 C.3     1  UNL1        0.1151
     10 N         143.1658  138.3695  157.4082 N.am    1  UNL1       -0.2726
     11 C         143.2665  137.8711  155.9970 C.2     1  UNL1        0.2493
     12 O         143.8174  138.7629  154.9241 O.2     1  UNL1       -0.2699
     13 C         143.6159  139.7598  157.7465 C.3     1  UNL1        0.1151
     14 C         143.5152  140.2583  159.1576 C.3     1  UNL1        0.1123
     15 C         142.8164  136.4808  155.6588 C.2     1  UNL1        0.0579
     16 C         143.6347  135.3010  156.0929 C.2     1  UNL1        0.0047
     17 C         143.1845  133.9107  155.7547 C.ar    1  UNL1        0.0003
     18 C         141.7506  133.6526  155.3980 C.ar    1  UNL1        0.0023
     19 C         141.3004  132.2623  155.0597 C.ar    1  UNL1        0.0296
     20 C         142.2842  131.1301  155.0782 C.ar    1  UNL1        0.1401
     21 F         141.8340  129.7398  154.7399 F       1  UNL1       -0.2042
     22 C         143.7182  131.3882  155.4349 C.ar    1  UNL1        0.0296
     23 C         144.1683  132.7785  155.7731 C.ar    1  UNL1        0.0023
     24 N         141.5874  140.7295  166.8257 N.am    1  UNL1       -0.2794
     25 C         142.5614  141.3602  165.8752 C.2     1  UNL1        0.2495
     26 O         143.4347  142.4894  166.3359 O.2     1  UNL1       -0.2698
     27 H         141.0142  139.9883  166.5233 H       1  UNL1        0.1552
     28 N         142.8881  139.1985  169.0538 N.pl3   1  UNL1       -0.3560
     29 C         142.1370  140.4625  169.3509 C.ar    1  UNL1        0.0552
     30 C         142.0362  140.9609  170.7620 C.ar    1  UNL1        0.0153
     31 C         141.2851  142.2249  171.0592 C.ar    1  UNL1        0.0013
     32 C         140.6348  142.9904  169.9451 C.ar    1  UNL1        0.0014
     33 C         140.7356  142.4919  168.5340 C.ar    1  UNL1        0.0159
     34 C         141.4867  141.2279  168.2369 C.ar    1  UNL1        0.0636
     35 H         143.3149  138.6961  169.7850 H       1  UNL1        0.1424
     36 H         142.9542  138.8713  168.1276 H       1  UNL1        0.1424
@<TRIPOS>BOND
     1    28    29    1
     2    29    30   ar
     3    30    31   ar
     4    31    32   ar
     5    32    33   ar
     6    33    34   ar
     7    34    24    1
     8    24    25   am
     9    25    26    2
    10    25     1    1
    11     1     2   ar
    12     2     3   ar
    13     3     4   ar
    14     4     7    1
    15     7     8    1
    16     8     9    1
    17     9    10    1
    18    10    11   am
    19    11    12    2
    20    11    15    1
    21    15    16    2
    22    16    17    1
    23    17    18   ar
    24    18    19   ar
    25    19    20   ar
    26    20    21    1
    27    20    22   ar
    28    22    23   ar
    29    10    13    1
    30    13    14    1
    31     4     5   ar
    32     5     6   ar
    33    34    29   ar
    34     6     1   ar
    35    14     7    1
    36    23    17   ar
    37    28    35    1
    38    28    36    1
    39    24    27    1
@<TRIPOS>MOLECULE
*****
 36 39 0 0 0
SMALL
GASTEIGER

@<TRIPOS>ATOM
      1 C         141.5099  137.4506  157.3359 C.ar    1  UNL1        0.0538
      2 C         140.1070  137.9785  157.3917 C.ar    1  UNL1        0.0058
      3 C         139.7061  138.9292  158.4804 C.ar    1  UNL1        0.0147
      4 C         140.7082  139.3520  159.5134 C.ar    1  UNL1        0.0479
      5 C         142.1111  138.8241  159.4577 C.ar    1  UNL1        0.0147
      6 C         142.5120  137.8734  158.3689 C.ar    1  UNL1        0.0058
      7 N         140.3073  140.3027  160.6023 N.pl3   1  UNL1       -0.3041
      8 C         140.6441  139.9922  162.0306 C.3     1  UNL1        0.1123
      9 C         140.2433  140.9429  163.1194 C.3     1  UNL1        0.1151
     10 N         139.5057  142.2040  162.7799 N.am    1  UNL1       -0.2726
     11 C         139.1048  143.1548  163.8687 C.2     1  UNL1        0.2493
     12 O         138.3671  144.4159  163.5292 O.2     1  UNL1       -0.2699
     13 C         139.1688  142.5145  161.3515 C.3     1  UNL1        0.1151
     14 C         139.5696  141.5638  160.2627 C.3     1  UNL1        0.1123
     15 C         139.4416  142.8443  165.2970 C.2     1  UNL1        0.0579
     16 C         140.8506  143.0024  165.7867 C.2     1  UNL1        0.0047
     17 C         141.1874  142.6919  167.2151 C.ar    1  UNL1        0.0003
     18 C         140.2610  143.1201  168.3143 C.ar    1  UNL1        0.0023
     19 C         140.5978  142.8096  169.7426 C.ar    1  UNL1        0.0296
     20 C         141.8611  142.0709  170.0717 C.ar    1  UNL1        0.1401
     21 F         142.1980  141.7605  171.5001 F       1  UNL1       -0.2042
     22 C         142.7877  141.6427  168.9725 C.ar    1  UNL1        0.0296
     23 C         142.4508  141.9532  167.5442 C.ar    1  UNL1        0.0023
     24 N         140.9145  135.5192  155.7034 N.am    1  UNL1       -0.2794
     25 C         141.9108  136.4998  156.2471 C.2     1  UNL1        0.2495
     26 O         143.3080  136.5298  155.7021 O.2     1  UNL1       -0.2698
     27 H         139.9975  135.4995  156.0611 H       1  UNL1        0.1552
     28 N         140.8157  136.3949  152.8357 N.pl3   1  UNL1       -0.3560
     29 C         141.2660  135.0063  153.1807 C.ar    1  UNL1        0.0552
     30 C         141.6668  134.0556  152.0920 C.ar    1  UNL1        0.0153
     31 C         142.1171  132.6670  152.4371 C.ar    1  UNL1        0.0013
     32 C         142.1665  132.2291  153.8708 C.ar    1  UNL1        0.0014
     33 C         141.7657  133.1798  154.9596 C.ar    1  UNL1        0.0159
     34 C         141.3154  134.5684  154.6145 C.ar    1  UNL1        0.0636
     35 H         140.7832  136.6822  151.8946 H       1  UNL1        0.1424
     36 H         140.5526  137.0189  153.5503 H       1  UNL1        0.1424
@<TRIPOS>BOND
     1    28    29    1
     2    29    30   ar
     3    30    31   ar
     4    31    32   ar
     5    32    33   ar
     6    33    34   ar
     7    34    24    1
     8    24    25   am
     9    25    26    2
    10    25     1    1
    11     1     2   ar
    12     2     3   ar
    13     3     4   ar
    14     4     7    1
    15     7     8    1
    16     8     9    1
    17     9    10    1
    18    10    11   am
    19    11    12    2
    20    11    15    1
    21    15    16    2
    22    16    17    1
    23    17    18   ar
    24    18    19   ar
    25    19    20   ar
    26    20    21    1
    27    20    22   ar
    28    22    23   ar
    29    10    13    1
    30    13    14    1
    31     4     5   ar
    32     5     6   ar
    33    34    29   ar
    34     6     1   ar
    35    14     7    1
    36    23    17   ar
    37    28    35    1
    38    28    36    1
    39    24    27    1
@<TRIPOS>MOLECULE
*****
 36 39 0 0 0
SMALL
GASTEIGER

@<TRIPOS>ATOM
      1 C         135.3778  140.1088  154.8645 C.ar    1  UNL1        0.0538
      2 C         135.7250  138.8030  154.2132 C.ar    1  UNL1        0.0058
      3 C         137.1125  138.2474  154.3395 C.ar    1  UNL1        0.0147
      4 C         138.1528  138.9976  155.1173 C.ar    1  UNL1        0.0479
      5 C         137.8056  140.3034  155.7686 C.ar    1  UNL1        0.0147
      6 C         136.4181  140.8590  155.6423 C.ar    1  UNL1        0.0058
      7 N         139.5404  138.4419  155.2437 N.pl3   1  UNL1       -0.3041
      8 C         139.7463  136.9624  155.3793 C.3     1  UNL1        0.1123
      9 C         141.1339  136.4067  155.5057 C.3     1  UNL1        0.1151
     10 N         142.3154  137.3307  155.4965 N.am    1  UNL1       -0.2726
     11 C         143.7030  136.7750  155.6229 C.2     1  UNL1        0.2493
     12 O         144.8846  137.6990  155.6136 O.2     1  UNL1       -0.2699
     13 C         142.1095  138.8103  155.3608 C.3     1  UNL1        0.1151
     14 C         140.7220  139.3659  155.2344 C.3     1  UNL1        0.1123
     15 C         143.9090  135.2954  155.7585 C.2     1  UNL1        0.0579
     16 C         143.5617  134.6046  157.0439 C.2     1  UNL1        0.0047
     17 C         143.7677  133.1250  157.1795 C.ar    1  UNL1        0.0003
     18 C         142.7902  132.1717  156.5586 C.ar    1  UNL1        0.0023
     19 C         142.9961  130.6921  156.6943 C.ar    1  UNL1        0.0296
     20 C         144.1795  130.1658  157.4508 C.ar    1  UNL1        0.1401
     21 F         144.3855  128.6862  157.5865 F       1  UNL1       -0.2042
     22 C         145.1571  131.1192  158.0718 C.ar    1  UNL1        0.0296
     23 C         144.9512  132.5988  157.9361 C.ar    1  UNL1        0.0023
     24 N         132.9941  140.4524  155.8394 N.am    1  UNL1       -0.2794
     25 C         133.9902  140.6645  154.7381 C.2     1  UNL1        0.2495
     26 O         133.5987  141.4322  153.5104 O.2     1  UNL1       -0.2698
     27 H         133.2511  139.9485  156.6452 H       1  UNL1        0.1552
     28 N         130.6330  138.7909  156.6546 N.pl3   1  UNL1       -0.3560
     29 C         130.4260  140.1773  156.1206 C.ar    1  UNL1        0.0552
     30 C         129.0385  140.7329  155.9942 C.ar    1  UNL1        0.0153
     31 C         128.8315  142.1193  155.4602 C.ar    1  UNL1        0.0013
     32 C         130.0120  142.9500  155.0526 C.ar    1  UNL1        0.0014
     33 C         131.3996  142.3944  155.1790 C.ar    1  UNL1        0.0159
     34 C         131.6065  141.0080  155.7130 C.ar    1  UNL1        0.0636
     35 H         129.8581  138.2457  156.9221 H       1  UNL1        0.1424
     36 H         131.5437  138.4262  156.7375 H       1  UNL1        0.1424
@<TRIPOS>BOND
     1    28    29    1
     2    29    30   ar
     3    30    31   ar
     4    31    32   ar
     5    32    33   ar
     6    33    34   ar
     7    34    24    1
     8    24    25   am
     9    25    26    2
    10    25     1    1
    11     1     2   ar
    12     2     3   ar
    13     3     4   ar
    14     4     7    1
    15     7     8    1
    16     8     9    1
    17     9    10    1
    18    10    11   am
    19    11    12    2
    20    11    15    1
    21    15    16    2
    22    16    17    1
    23    17    18   ar
    24    18    19   ar
    25    19    20   ar
    26    20    21    1
    27    20    22   ar
    28    22    23   ar
    29    10    13    1
    30    13    14    1
    31     4     5   ar
    32     5     6   ar
    33    34    29   ar
    34     6     1   ar
    35    14     7    1
    36    23    17   ar
    37    28    35    1
    38    28    36    1
    39    24    27    1
@<TRIPOS>MOLECULE
*****
 36 39 0 0 0
SMALL
GASTEIGER

@<TRIPOS>ATOM
      1 C         141.8320  142.2770  164.3180 C.ar    1  UNL1        0.0538
      2 C         141.3877  143.3410  163.3587 C.ar    1  UNL1        0.0058
      3 C         141.8140  143.2808  161.9218 C.ar    1  UNL1        0.0147
      4 C         142.6846  142.1566  161.4443 C.ar    1  UNL1        0.0479
      5 C         143.1289  141.0926  162.4037 C.ar    1  UNL1        0.0147
      6 C         142.7027  141.1528  163.8406 C.ar    1  UNL1        0.0058
      7 N         143.1109  142.0963  160.0074 N.pl3   1  UNL1       -0.3041
      8 C         144.4663  142.5979  159.6056 C.3     1  UNL1        0.1123
      9 C         144.8926  142.5376  158.1687 C.3     1  UNL1        0.1151
     10 N         143.9636  141.9759  157.1337 N.am    1  UNL1       -0.2726
     11 C         144.3899  141.9156  155.6968 C.2     1  UNL1        0.2493
     12 O         143.4609  141.3538  154.6618 O.2     1  UNL1       -0.2699
     13 C         142.6083  141.4743  157.5355 C.3     1  UNL1        0.1151
     14 C         142.1819  141.5346  158.9724 C.3     1  UNL1        0.1123
     15 C         145.7453  142.4172  155.2950 C.2     1  UNL1        0.0579
     16 C         146.8372  141.4437  154.9630 C.2     1  UNL1        0.0047
     17 C         148.1925  141.9452  154.5612 C.ar    1  UNL1        0.0003
     18 C         149.4160  141.4562  155.2780 C.ar    1  UNL1        0.0023
     19 C         150.7714  141.9578  154.8762 C.ar    1  UNL1        0.0296
     20 C         150.9032  142.9483  153.7576 C.ar    1  UNL1        0.1401
     21 F         152.2586  143.4499  153.3557 F       1  UNL1       -0.2042
     22 C         149.6797  143.4374  153.0407 C.ar    1  UNL1        0.0296
     23 C         148.3243  142.9358  153.4425 C.ar    1  UNL1        0.0023
     24 N         142.0627  141.4496  166.7700 N.am    1  UNL1       -0.2794
     25 C         141.4057  142.3373  165.7550 C.2     1  UNL1        0.2495
     26 O         140.3224  143.2852  166.1767 O.2     1  UNL1       -0.2698
     27 H         142.7737  140.8275  166.4932 H       1  UNL1        0.1552
     28 N         139.6402  139.9323  167.6809 N.pl3   1  UNL1       -0.3560
     29 C         140.4252  140.7512  168.6624 C.ar    1  UNL1        0.0552
     30 C         139.9989  140.8115  170.0992 C.ar    1  UNL1        0.0153
     31 C         140.7838  141.6305  171.0807 C.ar    1  UNL1        0.0013
     32 C         141.9950  142.3891  170.6253 C.ar    1  UNL1        0.0014
     33 C         142.4212  142.3288  169.1884 C.ar    1  UNL1        0.0159
     34 C         141.6363  141.5099  168.2070 C.ar    1  UNL1        0.0636
     35 H         138.8453  139.4344  167.9798 H       1  UNL1        0.1424
     36 H         139.9200  139.8927  166.7379 H       1  UNL1        0.1424
@<TRIPOS>BOND
     1    28    29    1
     2    29    30   ar
     3    30    31   ar
     4    31    32   ar
     5    32    33   ar
     6    33    34   ar
     7    34    24    1
     8    24    25   am
     9    25    26    2
    10    25     1    1
    11     1     2   ar
    12     2     3   ar
    13     3     4   ar
    14     4     7    1
    15     7     8    1
    16     8     9    1
    17     9    10    1
    18    10    11   am
    19    11    12    2
    20    11    15    1
    21    15    16    2
    22    16    17    1
    23    17    18   ar
    24    18    19   ar
    25    19    20   ar
    26    20    21    1
    27    20    22   ar
    28    22    23   ar
    29    10    13    1
    30    13    14    1
    31     4     5   ar
    32     5     6   ar
    33    34    29   ar
    34     6     1   ar
    35    14     7    1
    36    23    17   ar
    37    28    35    1
    38    28    36    1
    39    24    27    1
@<TRIPOS>MOLECULE
*****
 36 39 0 0 0
SMALL
GASTEIGER

@<TRIPOS>ATOM
      1 C         141.2098  142.1403  161.7077 C.ar    1  UNL1        0.0538
      2 C         142.4541  142.5505  160.9774 C.ar    1  UNL1        0.0058
      3 C         142.3514  143.3282  159.6989 C.ar    1  UNL1        0.0147
      4 C         141.0044  143.6957  159.1507 C.ar    1  UNL1        0.0479
      5 C         139.7601  143.2855  159.8811 C.ar    1  UNL1        0.0147
      6 C         139.8628  142.5078  161.1596 C.ar    1  UNL1        0.0058
      7 N         140.9017  144.4734  157.8721 N.pl3   1  UNL1       -0.3041
      8 C         140.1137  145.7491  157.8315 C.3     1  UNL1        0.1123
      9 C         140.0109  146.5268  156.5531 C.3     1  UNL1        0.1151
     10 N         140.6962  146.0288  155.3152 N.am    1  UNL1       -0.2726
     11 C         140.5934  146.8066  154.0366 C.2     1  UNL1        0.2493
     12 O         141.2787  146.3086  152.7987 O.2     1  UNL1       -0.2699
     13 C         141.4842  144.7531  155.3558 C.3     1  UNL1        0.1151
     14 C         141.5869  143.9754  156.6343 C.3     1  UNL1        0.1123
     15 C         139.8054  148.0823  153.9960 C.2     1  UNL1        0.0579
     16 C         140.5147  149.3984  153.8749 C.2     1  UNL1        0.0047
     17 C         139.7267  150.6741  153.8343 C.ar    1  UNL1        0.0003
     18 C         139.3485  151.2804  152.5155 C.ar    1  UNL1        0.0023
     19 C         138.5605  152.5561  152.4749 C.ar    1  UNL1        0.0296
     20 C         138.1507  153.2255  153.7531 C.ar    1  UNL1        0.1401
     21 F         137.3627  154.5012  153.7125 F       1  UNL1       -0.2042
     22 C         138.5289  152.6192  155.0720 C.ar    1  UNL1        0.0296
     23 C         139.3169  151.3435  155.1126 C.ar    1  UNL1        0.0023
     24 N         142.5886  141.3805  163.7745 N.am    1  UNL1       -0.2794
     25 C         141.3125  141.3626  162.9863 C.2     1  UNL1        0.2495
     26 O         140.1392  140.5671  163.4766 O.2     1  UNL1       -0.2698
     27 H         143.3587  141.9026  163.4528 H       1  UNL1        0.1552
     28 N         141.5351  142.5481  166.3293 N.pl3   1  UNL1       -0.3560
     29 C         142.1646  141.1866  166.3305 C.ar    1  UNL1        0.0552
     30 C         142.2674  140.4089  167.6089 C.ar    1  UNL1        0.0153
     31 C         142.8968  139.0473  167.6101 C.ar    1  UNL1        0.0013
     32 C         143.4235  138.4635  166.3327 C.ar    1  UNL1        0.0014
     33 C         143.3208  139.2412  165.0542 C.ar    1  UNL1        0.0159
     34 C         142.6913  140.6028  165.0531 C.ar    1  UNL1        0.0636
     35 H         141.1894  142.9313  167.1677 H       1  UNL1        0.1424
     36 H         141.4677  143.0586  165.4902 H       1  UNL1        0.1424
@<TRIPOS>BOND
     1    28    29    1
     2    29    30   ar
     3    30    31   ar
     4    31    32   ar
     5    32    33   ar
     6    33    34   ar
     7    34    24    1
     8    24    25   am
     9    25    26    2
    10    25     1    1
    11     1     2   ar
    12     2     3   ar
    13     3     4   ar
    14     4     7    1
    15     7     8    1
    16     8     9    1
    17     9    10    1
    18    10    11   am
    19    11    12    2
    20    11    15    1
    21    15    16    2
    22    16    17    1
    23    17    18   ar
    24    18    19   ar
    25    19    20   ar
    26    20    21    1
    27    20    22   ar
    28    22    23   ar
    29    10    13    1
    30    13    14    1
    31     4     5   ar
    32     5     6   ar
    33    34    29   ar
    34     6     1   ar
    35    14     7    1
    36    23    17   ar
    37    28    35    1
    38    28    36    1
    39    24    27    1
