@<TRIPOS>MOLECULE
*****
 24 26 0 0 0
SMALL
GASTEIGER

@<TRIPOS>ATOM
      1 C         141.3757  140.9608  167.2919 C.3     1  UNL1        0.0847
      2 C         140.4945  139.9255  166.6581 C.ar    1  UNL1       -0.0052
      3 C         140.9584  139.1934  165.4339 C.ar    1  UNL1       -0.0028
      4 C         140.0771  138.1582  164.8001 C.ar    1  UNL1        0.0020
      5 C         138.7320  137.8550  165.3906 C.ar    1  UNL1        0.0296
      6 C         138.2681  138.5871  166.6149 C.ar    1  UNL1        0.1399
      7 F         136.9229  138.2840  167.2053 F       1  UNL1       -0.2042
      8 C         139.1493  139.6224  167.2486 C.ar    1  UNL1        0.0267
      9 N         141.1470  141.3698  168.7169 N.3     1  UNL1       -0.2676
     10 C         140.3666  142.6134  169.0242 C.3     1  UNL1        0.0896
     11 C         140.1380  143.0224  170.4491 C.3     1  UNL1        0.0862
     12 N         140.6897  142.1878  171.5667 N.3     1  UNL1       -0.2951
     13 C         141.4701  140.9442  171.2594 C.3     1  UNL1        0.0862
     14 C         141.6988  140.5352  169.8345 C.3     1  UNL1        0.0896
     15 H         139.8963  141.9031  172.1410 H       1  UNL1        0.1233
     16 C         142.4856  141.5871  166.5007 C.3     1  UNL1        0.0499
     17 C         143.3140  143.4019  164.8364 C.ar    1  UNL1        0.1347
     18 C         143.0233  144.5487  163.9142 C.ar    1  UNL1        0.0366
     19 C         141.6132  145.0273  163.7343 C.ar    1  UNL1        0.0031
     20 C         140.4938  144.3592  164.4764 C.ar    1  UNL1       -0.0001
     21 C         140.7846  143.2125  165.3986 C.ar    1  UNL1       -0.0012
     22 C         142.1947  142.7339  165.5786 C.ar    1  UNL1        0.0135
     23 C         145.3304  141.9831  164.0171 C.3     1  UNL1        0.2525
     24 O         144.7242  142.9232  165.0164 O.3     1  UNL1       -0.4717
@<TRIPOS>BOND
     1    23    24    1
     2    24    17    1
     3    17    18   ar
     4    18    19   ar
     5    19    20   ar
     6    20    21   ar
     7    21    22   ar
     8    22    16    1
     9    16     1    1
    10     1     2    1
    11     2     3   ar
    12     3     4   ar
    13     4     5   ar
    14     5     6   ar
    15     6     7    1
    16     6     8   ar
    17     1     9    1
    18     9    10    1
    19    10    11    1
    20    11    12    1
    21    12    13    1
    22    13    14    1
    23    22    17   ar
    24     8     2   ar
    25    14     9    1
    26    12    15    1
@<TRIPOS>MOLECULE
*****
 24 26 0 0 0
SMALL
GASTEIGER

@<TRIPOS>ATOM
      1 C         141.4556  140.8704  167.1263 C.3     1  UNL1        0.0847
      2 C         140.6182  139.8068  166.4802 C.ar    1  UNL1       -0.0052
      3 C         139.1529  139.7160  166.7875 C.ar    1  UNL1       -0.0028
      4 C         138.3155  138.6523  166.1413 C.ar    1  UNL1        0.0020
      5 C         138.9435  137.6795  165.1879 C.ar    1  UNL1        0.0296
      6 C         140.4089  137.7703  164.8805 C.ar    1  UNL1        0.1399
      7 F         141.0369  136.7975  163.9271 F       1  UNL1       -0.2042
      8 C         141.2462  138.8339  165.5267 C.ar    1  UNL1        0.0267
      9 N         141.6501  140.8714  168.6137 N.3     1  UNL1       -0.2676
     10 C         140.8599  141.8136  169.4727 C.3     1  UNL1        0.0896
     11 C         141.0544  141.8147  170.9601 C.3     1  UNL1        0.0862
     12 N         142.0390  140.8736  171.5883 N.3     1  UNL1       -0.2951
     13 C         142.8292  139.9314  170.7293 C.3     1  UNL1        0.0862
     14 C         142.6347  139.9303  169.2420 C.3     1  UNL1        0.0896
     15 H         141.5168  140.3003  172.2509 H       1  UNL1        0.1233
     16 C         142.0985  141.9330  166.2852 C.3     1  UNL1        0.0499
     17 C         141.7756  143.6751  164.3849 C.ar    1  UNL1        0.1347
     18 C         140.9264  144.6988  163.6916 C.ar    1  UNL1        0.0366
     19 C         139.5506  145.0042  164.2053 C.ar    1  UNL1        0.0031
     20 C         139.0241  144.2859  165.4123 C.ar    1  UNL1       -0.0001
     21 C         139.8734  143.2622  166.1056 C.ar    1  UNL1       -0.0012
     22 C         141.2491  142.9568  165.5919 C.ar    1  UNL1        0.0135
     23 C         143.9013  144.3983  163.0778 C.3     1  UNL1        0.2525
     24 O         143.1515  143.3696  163.8712 O.3     1  UNL1       -0.4717
@<TRIPOS>BOND
     1    23    24    1
     2    24    17    1
     3    17    18   ar
     4    18    19   ar
     5    19    20   ar
     6    20    21   ar
     7    21    22   ar
     8    22    16    1
     9    16     1    1
    10     1     2    1
    11     2     3   ar
    12     3     4   ar
    13     4     5   ar
    14     5     6   ar
    15     6     7    1
    16     6     8   ar
    17     1     9    1
    18     9    10    1
    19    10    11    1
    20    11    12    1
    21    12    13    1
    22    13    14    1
    23    22    17   ar
    24     8     2   ar
    25    14     9    1
    26    12    15    1
@<TRIPOS>MOLECULE
*****
 24 26 0 0 0
SMALL
GASTEIGER

@<TRIPOS>ATOM
      1 C         141.3135  142.1350  166.1053 C.3     1  UNL1        0.0847
      2 C         141.6287  142.4339  167.5410 C.ar    1  UNL1       -0.0052
      3 C         140.5525  142.9391  168.4557 C.ar    1  UNL1       -0.0028
      4 C         140.8677  143.2380  169.8914 C.ar    1  UNL1        0.0020
      5 C         142.2591  143.0317  170.4125 C.ar    1  UNL1        0.0296
      6 C         143.3353  142.5265  169.4978 C.ar    1  UNL1        0.1399
      7 F         144.7266  142.3203  170.0188 F       1  UNL1       -0.2042
      8 C         143.0201  142.2276  168.0621 C.ar    1  UNL1        0.0267
      9 N         140.8148  143.2255  165.2041 N.3     1  UNL1       -0.2676
     10 C         139.3486  143.5366  165.1436 C.3     1  UNL1        0.0896
     11 C         138.8499  144.6271  164.2424 C.3     1  UNL1        0.0862
     12 N         139.8173  145.4065  163.4019 N.3     1  UNL1       -0.2951
     13 C         141.2834  145.0955  163.4625 C.3     1  UNL1        0.0862
     14 C         141.7822  144.0050  164.3636 C.3     1  UNL1        0.0896
     15 H         139.7130  146.3864  163.6652 H       1  UNL1        0.1233
     16 C         141.4970  140.7456  165.5707 C.3     1  UNL1        0.0499
     17 C         140.4207  138.4809  164.8900 C.ar    1  UNL1        0.1347
     18 C         139.3192  137.4723  165.0289 C.ar    1  UNL1        0.0366
     19 C         138.1924  137.7197  165.9875 C.ar    1  UNL1        0.0031
     20 C         138.1670  138.9757  166.8072 C.ar    1  UNL1       -0.0001
     21 C         139.2685  139.9843  166.6683 C.ar    1  UNL1       -0.0012
     22 C         140.3954  139.7369  165.7097 C.ar    1  UNL1        0.0135
     23 C         141.2700  137.6268  162.5880 C.3     1  UNL1        0.2525
     24 O         141.5477  138.2336  163.9313 O.3     1  UNL1       -0.4717
@<TRIPOS>BOND
     1    23    24    1
     2    24    17    1
     3    17    18   ar
     4    18    19   ar
     5    19    20   ar
     6    20    21   ar
     7    21    22   ar
     8    22    16    1
     9    16     1    1
    10     1     2    1
    11     2     3   ar
    12     3     4   ar
    13     4     5   ar
    14     5     6   ar
    15     6     7    1
    16     6     8   ar
    17     1     9    1
    18     9    10    1
    19    10    11    1
    20    11    12    1
    21    12    13    1
    22    13    14    1
    23    22    17   ar
    24     8     2   ar
    25    14     9    1
    26    12    15    1
@<TRIPOS>MOLECULE
*****
 24 26 0 0 0
SMALL
GASTEIGER

@<TRIPOS>ATOM
      1 C         141.6417  141.8473  166.5534 C.3     1  UNL1        0.0847
      2 C         142.8568  141.7951  165.6755 C.ar    1  UNL1       -0.0052
      3 C         143.4589  143.0653  165.1519 C.ar    1  UNL1       -0.0028
      4 C         144.6740  143.0131  164.2739 C.ar    1  UNL1        0.0020
      5 C         145.2869  141.6907  163.9195 C.ar    1  UNL1        0.0296
      6 C         144.6848  140.4205  164.4430 C.ar    1  UNL1        0.1399
      7 F         145.2977  139.0982  164.0886 F       1  UNL1       -0.2042
      8 C         143.4698  140.4727  165.3210 C.ar    1  UNL1        0.0267
      9 N         141.7549  142.3520  167.9615 N.3     1  UNL1       -0.2676
     10 C         143.0487  142.2108  168.7071 C.3     1  UNL1        0.0896
     11 C         143.1620  142.7156  170.1150 C.3     1  UNL1        0.0862
     12 N         141.9813  143.3615  170.7774 N.3     1  UNL1       -0.2951
     13 C         140.6874  143.5028  170.0317 C.3     1  UNL1        0.0862
     14 C         140.5742  142.9980  168.6238 C.3     1  UNL1        0.0896
     15 H         142.2716  144.3023  171.0442 H       1  UNL1        0.1233
     16 C         140.3134  141.3946  166.0235 C.3     1  UNL1        0.0499
     17 C         138.3511  141.7807  164.3651 C.ar    1  UNL1        0.1347
     18 C         137.5233  142.7078  163.5253 C.ar    1  UNL1        0.0366
     19 C         137.8300  144.1759  163.5042 C.ar    1  UNL1        0.0031
     20 C         138.9645  144.7170  164.3228 C.ar    1  UNL1       -0.0001
     21 C         139.7923  143.7899  165.1625 C.ar    1  UNL1       -0.0012
     22 C         139.4856  142.3218  165.1837 C.ar    1  UNL1        0.0135
     23 C         138.3929  139.4564  163.2048 C.3     1  UNL1        0.2525
     24 O         138.0444  140.3125  164.3862 O.3     1  UNL1       -0.4717
@<TRIPOS>BOND
     1    23    24    1
     2    24    17    1
     3    17    18   ar
     4    18    19   ar
     5    19    20   ar
     6    20    21   ar
     7    21    22   ar
     8    22    16    1
     9    16     1    1
    10     1     2    1
    11     2     3   ar
    12     3     4   ar
    13     4     5   ar
    14     5     6   ar
    15     6     7    1
    16     6     8   ar
    17     1     9    1
    18     9    10    1
    19    10    11    1
    20    11    12    1
    21    12    13    1
    22    13    14    1
    23    22    17   ar
    24     8     2   ar
    25    14     9    1
    26    12    15    1
@<TRIPOS>MOLECULE
*****
 24 26 0 0 0
SMALL
GASTEIGER

@<TRIPOS>ATOM
      1 C         140.4135  141.1110  167.4224 C.3     1  UNL1        0.0847
      2 C         139.9067  139.8920  166.7103 C.ar    1  UNL1       -0.0052
      3 C         138.5484  139.3444  167.0346 C.ar    1  UNL1       -0.0028
      4 C         138.0416  138.1253  166.3225 C.ar    1  UNL1        0.0020
      5 C         138.8931  137.4539  165.2861 C.ar    1  UNL1        0.0296
      6 C         140.2514  138.0015  164.9618 C.ar    1  UNL1        0.1399
      7 F         141.1029  137.3301  163.9254 F       1  UNL1       -0.2042
      8 C         140.7582  139.2205  165.6739 C.ar    1  UNL1        0.0267
      9 N         140.9804  140.9900  168.8059 N.3     1  UNL1       -0.2676
     10 C         140.4127  141.8136  169.9237 C.3     1  UNL1        0.0896
     11 C         140.9796  141.6927  171.3072 C.3     1  UNL1        0.0862
     12 N         142.1140  140.7481  171.5729 N.3     1  UNL1       -0.2951
     13 C         142.6817  139.9245  170.4551 C.3     1  UNL1        0.0862
     14 C         142.1149  140.0454  169.0717 C.3     1  UNL1        0.0896
     15 H         141.7917  140.0942  172.2862 H       1  UNL1        0.1233
     16 C         140.3534  142.4510  166.7511 C.3     1  UNL1        0.0499
     17 C         141.2250  143.9012  164.7794 C.ar    1  UNL1        0.1347
     18 C         142.3496  144.3468  163.8925 C.ar    1  UNL1        0.0366
     19 C         143.7274  143.7878  164.0904 C.ar    1  UNL1        0.0031
     20 C         143.9806  142.7832  165.1751 C.ar    1  UNL1       -0.0001
     21 C         142.8559  142.3376  166.0620 C.ar    1  UNL1       -0.0012
     22 C         141.4782  142.8966  165.8641 C.ar    1  UNL1        0.0135
     23 C         139.3937  144.8701  163.2118 C.3     1  UNL1        0.2525
     24 O         139.8472  144.4602  164.5816 O.3     1  UNL1       -0.4717
@<TRIPOS>BOND
     1    23    24    1
     2    24    17    1
     3    17    18   ar
     4    18    19   ar
     5    19    20   ar
     6    20    21   ar
     7    21    22   ar
     8    22    16    1
     9    16     1    1
    10     1     2    1
    11     2     3   ar
    12     3     4   ar
    13     4     5   ar
    14     5     6   ar
    15     6     7    1
    16     6     8   ar
    17     1     9    1
    18     9    10    1
    19    10    11    1
    20    11    12    1
    21    12    13    1
    22    13    14    1
    23    22    17   ar
    24     8     2   ar
    25    14     9    1
    26    12    15    1
@<TRIPOS>MOLECULE
*****
 24 26 0 0 0
SMALL
GASTEIGER

@<TRIPOS>ATOM
      1 C         141.5799  141.7579  164.6179 C.3     1  UNL1        0.0847
      2 C         140.3260  142.5564  164.4178 C.ar    1  UNL1       -0.0052
      3 C         139.4380  142.2762  163.2419 C.ar    1  UNL1       -0.0028
      4 C         138.1840  143.0747  163.0418 C.ar    1  UNL1        0.0020
      5 C         137.8182  144.1535  164.0177 C.ar    1  UNL1        0.0296
      6 C         138.7062  144.4338  165.1936 C.ar    1  UNL1        0.1399
      7 F         138.3404  145.5126  166.1694 F       1  UNL1       -0.2042
      8 C         139.9601  143.6353  165.3937 C.ar    1  UNL1        0.0267
      9 N         142.7908  142.0401  163.7786 N.3     1  UNL1       -0.2676
     10 C         143.6722  140.9121  163.3307 C.3     1  UNL1        0.0896
     11 C         144.8830  141.1943  162.4914 C.3     1  UNL1        0.0862
     12 N         145.2123  142.6043  162.1002 N.3     1  UNL1       -0.2951
     13 C         144.3309  143.7323  162.5482 C.3     1  UNL1        0.0862
     14 C         143.1201  143.4502  163.3874 C.3     1  UNL1        0.0896
     15 H         145.2291  142.6308  161.0807 H       1  UNL1        0.1233
     16 C         141.6230  140.6772  165.6572 C.3     1  UNL1        0.0499
     17 C         140.2471  138.5994  164.9227 C.ar    1  UNL1        0.1347
     18 C         139.0689  137.6898  165.1081 C.ar    1  UNL1        0.0366
     19 C         138.0885  137.9482  166.2134 C.ar    1  UNL1        0.0031
     20 C         138.2862  139.1164  167.1334 C.ar    1  UNL1       -0.0001
     21 C         139.4644  140.0260  166.9480 C.ar    1  UNL1       -0.0012
     22 C         140.4448  139.7675  165.8427 C.ar    1  UNL1        0.0135
     23 C         140.7598  137.7394  162.5252 C.3     1  UNL1        0.2525
     24 O         141.2276  138.3410  163.8173 O.3     1  UNL1       -0.4717
@<TRIPOS>BOND
     1    23    24    1
     2    24    17    1
     3    17    18   ar
     4    18    19   ar
     5    19    20   ar
     6    20    21   ar
     7    21    22   ar
     8    22    16    1
     9    16     1    1
    10     1     2    1
    11     2     3   ar
    12     3     4   ar
    13     4     5   ar
    14     5     6   ar
    15     6     7    1
    16     6     8   ar
    17     1     9    1
    18     9    10    1
    19    10    11    1
    20    11    12    1
    21    12    13    1
    22    13    14    1
    23    22    17   ar
    24     8     2   ar
    25    14     9    1
    26    12    15    1
@<TRIPOS>MOLECULE
*****
 24 26 0 0 0
SMALL
GASTEIGER

@<TRIPOS>ATOM
      1 C         141.5831  141.7608  164.5806 C.3     1  UNL1        0.0847
      2 C         140.3262  142.5583  164.3957 C.ar    1  UNL1       -0.0052
      3 C         139.4284  142.2829  163.2260 C.ar    1  UNL1       -0.0028
      4 C         138.1715  143.0804  163.0411 C.ar    1  UNL1        0.0020
      5 C         137.8124  144.1533  164.0260 C.ar    1  UNL1        0.0296
      6 C         138.7102  144.4287  165.1957 C.ar    1  UNL1        0.1399
      7 F         138.3510  145.5016  166.1805 F       1  UNL1       -0.2042
      8 C         139.9670  143.6312  165.3805 C.ar    1  UNL1        0.0267
      9 N         142.7865  142.0502  163.7331 N.3     1  UNL1       -0.2676
     10 C         143.1355  143.4669  163.3851 C.3     1  UNL1        0.0896
     11 C         144.3389  143.7563  162.5376 C.3     1  UNL1        0.0862
     12 N         145.1931  142.6290  162.0382 N.3     1  UNL1       -0.2951
     13 C         144.8440  141.2123  162.3862 C.3     1  UNL1        0.0862
     14 C         143.6407  140.9229  163.2337 C.3     1  UNL1        0.0896
     15 H         146.1356  142.7952  162.3909 H       1  UNL1        0.1233
     16 C         141.6366  140.6739  165.6129 C.3     1  UNL1        0.0499
     17 C         139.5594  140.0558  167.0458 C.ar    1  UNL1        0.1347
     18 C         138.3582  139.1903  167.2866 C.ar    1  UNL1        0.0366
     19 C         138.0331  138.0772  166.3352 C.ar    1  UNL1        0.0031
     20 C         138.9092  137.8296  165.1430 C.ar    1  UNL1       -0.0001
     21 C         140.1103  138.6951  164.9023 C.ar    1  UNL1       -0.0012
     22 C         140.4354  139.8082  165.8537 C.ar    1  UNL1        0.0135
     23 C         140.3749  140.8549  169.3796 C.3     1  UNL1        0.2525
     24 O         139.8845  141.1690  167.9972 O.3     1  UNL1       -0.4717
@<TRIPOS>BOND
     1    23    24    1
     2    24    17    1
     3    17    18   ar
     4    18    19   ar
     5    19    20   ar
     6    20    21   ar
     7    21    22   ar
     8    22    16    1
     9    16     1    1
    10     1     2    1
    11     2     3   ar
    12     3     4   ar
    13     4     5   ar
    14     5     6   ar
    15     6     7    1
    16     6     8   ar
    17     1     9    1
    18     9    10    1
    19    10    11    1
    20    11    12    1
    21    12    13    1
    22    13    14    1
    23    22    17   ar
    24     8     2   ar
    25    14     9    1
    26    12    15    1
@<TRIPOS>MOLECULE
*****
 24 26 0 0 0
SMALL
GASTEIGER

@<TRIPOS>ATOM
      1 C         140.3365  140.6977  166.1316 C.3     1  UNL1        0.0847
      2 C         140.1229  141.1587  167.5429 C.ar    1  UNL1       -0.0052
      3 C         139.4754  140.2448  168.5406 C.ar    1  UNL1       -0.0028
      4 C         139.2618  140.7058  169.9520 C.ar    1  UNL1        0.0020
      5 C         139.6956  142.0808  170.3656 C.ar    1  UNL1        0.0296
      6 C         140.3431  142.9948  169.3679 C.ar    1  UNL1        0.1399
      7 F         140.7770  144.3698  169.7815 F       1  UNL1       -0.2042
      8 C         140.5567  142.5338  167.9566 C.ar    1  UNL1        0.0267
      9 N         139.2756  140.9321  165.0974 N.3     1  UNL1       -0.2676
     10 C         138.8379  139.8092  164.2042 C.3     1  UNL1        0.0896
     11 C         137.7771  140.0435  163.1700 C.3     1  UNL1        0.0862
     12 N         137.1540  141.4006  163.0289 N.3     1  UNL1       -0.2951
     13 C         137.5917  142.5234  163.9220 C.3     1  UNL1        0.0862
     14 C         138.6525  142.2892  164.9562 C.3     1  UNL1        0.0896
     15 H         136.1517  141.2811  163.1757 H       1  UNL1        0.1233
     16 C         141.6110  140.0024  165.7546 C.3     1  UNL1        0.0499
     17 C         143.7899  140.1411  164.3463 C.ar    1  UNL1        0.1347
     18 C         144.9510  140.9344  163.8242 C.ar    1  UNL1        0.0366
     19 C         145.0942  142.3824  164.1883 C.ar    1  UNL1        0.0031
     20 C         144.0764  143.0371  165.0745 C.ar    1  UNL1       -0.0001
     21 C         142.9153  142.2438  165.5966 C.ar    1  UNL1       -0.0012
     22 C         142.7721  140.7958  165.2325 C.ar    1  UNL1        0.0135
     23 C         142.9806  138.3056  162.6952 C.3     1  UNL1        0.2525
     24 O         143.6466  138.6929  163.9821 O.3     1  UNL1       -0.4717
@<TRIPOS>BOND
     1    23    24    1
     2    24    17    1
     3    17    18   ar
     4    18    19   ar
     5    19    20   ar
     6    20    21   ar
     7    21    22   ar
     8    22    16    1
     9    16     1    1
    10     1     2    1
    11     2     3   ar
    12     3     4   ar
    13     4     5   ar
    14     5     6   ar
    15     6     7    1
    16     6     8   ar
    17     1     9    1
    18     9    10    1
    19    10    11    1
    20    11    12    1
    21    12    13    1
    22    13    14    1
    23    22    17   ar
    24     8     2   ar
    25    14     9    1
    26    12    15    1
@<TRIPOS>MOLECULE
*****
 24 26 0 0 0
SMALL
GASTEIGER

@<TRIPOS>ATOM
      1 C         140.6472  141.2668  166.6152 C.3     1  UNL1        0.0847
      2 C         139.7308  142.1337  165.8037 C.ar    1  UNL1       -0.0052
      3 C         139.8370  143.6273  165.8930 C.ar    1  UNL1       -0.0028
      4 C         138.9205  144.4942  165.0814 C.ar    1  UNL1        0.0020
      5 C         137.8980  143.8675  164.1805 C.ar    1  UNL1        0.0296
      6 C         137.7918  142.3739  164.0912 C.ar    1  UNL1        0.1399
      7 F         136.7693  141.7472  163.1903 F       1  UNL1       -0.2042
      8 C         138.7082  141.5070  164.9027 C.ar    1  UNL1        0.0267
      9 N         140.5729  141.2928  168.1132 N.3     1  UNL1       -0.2676
     10 C         139.7082  140.3047  168.8384 C.3     1  UNL1        0.0896
     11 C         139.6338  140.3307  170.3363 C.3     1  UNL1        0.0862
     12 N         140.4242  141.3447  171.1090 N.3     1  UNL1       -0.2951
     13 C         141.2889  142.3328  170.3838 C.3     1  UNL1        0.0862
     14 C         141.3633  142.3068  168.8859 C.3     1  UNL1        0.0896
     15 H         141.0356  140.8243  171.7381 H       1  UNL1        0.1233
     16 C         141.6380  140.3739  165.9289 C.3     1  UNL1        0.0499
     17 C         143.7787  140.1043  164.4815 C.ar    1  UNL1        0.1347
     18 C         145.0277  140.6860  163.8885 C.ar    1  UNL1        0.0366
     19 C         145.3849  142.1192  164.1499 C.ar    1  UNL1        0.0031
     20 C         144.4932  142.9706  165.0042 C.ar    1  UNL1       -0.0001
     21 C         143.2443  142.3889  165.5972 C.ar    1  UNL1       -0.0012
     22 C         142.8870  140.9557  165.3359 C.ar    1  UNL1        0.0135
     23 C         142.6382  138.3049  162.9944 C.3     1  UNL1        0.2525
     24 O         143.4214  138.6710  164.2201 O.3     1  UNL1       -0.4717
@<TRIPOS>BOND
     1    23    24    1
     2    24    17    1
     3    17    18   ar
     4    18    19   ar
     5    19    20   ar
     6    20    21   ar
     7    21    22   ar
     8    22    16    1
     9    16     1    1
    10     1     2    1
    11     2     3   ar
    12     3     4   ar
    13     4     5   ar
    14     5     6   ar
    15     6     7    1
    16     6     8   ar
    17     1     9    1
    18     9    10    1
    19    10    11    1
    20    11    12    1
    21    12    13    1
    22    13    14    1
    23    22    17   ar
    24     8     2   ar
    25    14     9    1
    26    12    15    1
