@<TRIPOS>MOLECULE
*****
 39 42 0 0 0
SMALL
GASTEIGER

@<TRIPOS>ATOM
      1 N         143.8936  142.2707  160.9565 N.3     1  UNL1       -0.2689
      2 C         144.1402  140.8668  161.4236 C.3     1  UNL1        0.0741
      3 C         144.0628  139.7280  160.4503 C.3     1  UNL1        0.0369
      4 C         143.7388  139.9931  159.0099 C.3     1  UNL1        0.0747
      5 C         143.4922  141.3970  158.5428 C.3     1  UNL1        0.0369
      6 C         143.5695  142.5358  159.5160 C.3     1  UNL1        0.0741
      7 N         143.6615  138.8544  158.0367 N.am    1  UNL1       -0.2999
      8 C         142.4472  137.9742  158.0072 C.2     1  UNL1        0.2806
      9 O         141.3104  138.2327  158.9509 O.2     1  UNL1       -0.2668
     10 H         144.4076  138.6847  157.4173 H       1  UNL1        0.1498
     11 C         142.3699  136.8354  157.0339 C.ar    1  UNL1        0.2014
     12 C         141.4180  136.9013  155.8765 C.ar    1  UNL1        0.0843
     13 C         141.3407  135.7626  154.9032 C.ar    1  UNL1        0.2018
     14 O         140.3888  135.8285  153.7458 O.2     1  UNL1       -0.2864
     15 C         142.2152  134.5579  155.0873 C.ar    1  UNL1        0.0737
     16 C         142.1379  133.4191  154.1140 C.ar    1  UNL1        0.0085
     17 C         143.0124  132.2145  154.2982 C.ar    1  UNL1        0.0299
     18 C         143.9643  132.1486  155.4555 C.ar    1  UNL1        0.1432
     19 F         144.8389  130.9438  155.6396 F       1  UNL1       -0.2041
     20 C         144.0417  133.2873  156.4288 C.ar    1  UNL1        0.0672
     21 C         143.1671  134.4919  156.2447 C.ar    1  UNL1        0.1508
     22 O         143.2445  135.6307  157.2180 O.2     1  UNL1       -0.4486
     23 C         143.9709  143.4094  161.9297 C.3     1  UNL1        0.0992
     24 C         140.3558  144.5439  164.3575 C.ar    1  UNL1        0.1663
     25 C         140.5738  145.1564  163.0057 C.ar    1  UNL1        0.0390
     26 C         141.7789  144.7782  162.1965 C.ar    1  UNL1        0.0003
     27 C         142.7659  143.7876  162.7390 C.ar    1  UNL1       -0.0037
     28 C         142.5479  143.1751  164.0907 C.ar    1  UNL1        0.0299
     29 C         141.3429  143.5532  164.9000 C.ar    1  UNL1        0.1736
     30 F         141.1249  142.9407  166.2518 F       1  UNL1       -0.2010
     31 O         139.1508  144.9220  165.1668 O.3     1  UNL1       -0.4666
     32 C         137.8065  144.3535  164.8209 C.3     1  UNL1        0.2556
     33 N         137.3324  142.7712  162.8155 N.2     1  UNL1       -0.0823
     34 C         137.7009  142.9679  164.2562 C.2     1  UNL1        0.1608
     35 O         137.2268  141.3856  162.2508 O.2     1  UNL1       -0.3775
     36 C         138.0977  140.9762  161.1003 C.3     1  UNL1        0.2383
     37 C         140.5656  140.9408  161.9115 C.3     1  UNL1        0.0039
     38 C         139.5041  141.4890  161.0046 C.3     1  UNL1        0.0467
     39 C         139.8489  142.5501  160.0020 C.3     1  UNL1        0.0039
@<TRIPOS>BOND
     1    37    38    1
     2    38    39    1
     3    38    36    1
     4    36    35    1
     5    35    33    1
     6    33    34    2
     7    34    32    1
     8    32    31    1
     9    31    24    1
    10    24    25   ar
    11    25    26   ar
    12    26    27   ar
    13    27    23    1
    14    23     1    1
    15     1     2    1
    16     2     3    1
    17     3     4    1
    18     4     7    1
    19     7     8   am
    20     8     9    2
    21     8    11    1
    22    11    12   ar
    23    12    13   ar
    24    13    14    2
    25    13    15   ar
    26    15    16   ar
    27    16    17   ar
    28    17    18   ar
    29    18    19    1
    30    18    20   ar
    31    20    21   ar
    32    21    22   ar
    33     4     5    1
    34     5     6    1
    35    27    28   ar
    36    28    29   ar
    37    29    30    1
    38    29    24   ar
    39     6     1    1
    40    22    11   ar
    41    21    15   ar
    42     7    10    1
@<TRIPOS>MOLECULE
*****
 39 42 0 0 0
SMALL
GASTEIGER

@<TRIPOS>ATOM
      1 N         143.8477  142.1488  162.7145 N.3     1  UNL1       -0.2689
      2 C         144.1026  140.6915  162.9620 C.3     1  UNL1        0.0741
      3 C         144.0483  139.7167  161.8231 C.3     1  UNL1        0.0369
      4 C         143.7390  140.1992  160.4370 C.3     1  UNL1        0.0747
      5 C         143.4840  141.6565  160.1895 C.3     1  UNL1        0.0369
      6 C         143.5383  142.6313  161.3283 C.3     1  UNL1        0.0741
      7 N         143.6847  139.2243  159.2983 N.am    1  UNL1       -0.2999
      8 C         142.4818  138.3462  159.1194 C.2     1  UNL1        0.2806
      9 O         141.3333  138.4429  160.0793 O.2     1  UNL1       -0.2668
     10 H         144.4385  139.1609  158.6682 H       1  UNL1        0.1498
     11 C         142.4275  137.3713  157.9806 C.ar    1  UNL1        0.2014
     12 C         141.5562  137.6535  156.7927 C.ar    1  UNL1        0.0843
     13 C         141.5018  136.6787  155.6540 C.ar    1  UNL1        0.2018
     14 O         140.6305  136.9609  154.4661 O.2     1  UNL1       -0.2864
     15 C         142.3189  135.4217  155.7031 C.ar    1  UNL1        0.0737
     16 C         142.2646  134.4469  154.5643 C.ar    1  UNL1        0.0085
     17 C         143.0817  133.1900  154.6135 C.ar    1  UNL1        0.0299
     18 C         143.9530  132.9078  155.8014 C.ar    1  UNL1        0.1432
     19 F         144.7701  131.6508  155.8505 F       1  UNL1       -0.2041
     20 C         144.0074  133.8826  156.9401 C.ar    1  UNL1        0.0672
     21 C         143.1903  135.1395  156.8910 C.ar    1  UNL1        0.1508
     22 O         143.2446  136.1144  158.0298 O.2     1  UNL1       -0.4486
     23 C         143.9020  143.1236  163.8532 C.3     1  UNL1        0.0992
     24 C         141.3964  142.4340  167.5270 C.ar    1  UNL1        0.1663
     25 C         140.7403  142.8081  166.2311 C.ar    1  UNL1        0.0390
     26 C         141.5755  143.0380  165.0065 C.ar    1  UNL1        0.0003
     27 C         143.0668  142.8937  165.0778 C.ar    1  UNL1       -0.0037
     28 C         143.7229  142.5196  166.3737 C.ar    1  UNL1        0.0299
     29 C         142.8877  142.2897  167.5983 C.ar    1  UNL1        0.1736
     30 F         143.5439  141.9156  168.8943 F       1  UNL1       -0.2010
     31 O         140.5612  142.2041  168.7516 O.3     1  UNL1       -0.4666
     32 C         139.8443  140.8996  168.9364 C.3     1  UNL1        0.2556
     33 N         138.3920  139.0740  167.7926 N.2     1  UNL1       -0.0823
     34 C         139.5436  140.0342  167.7487 C.2     1  UNL1        0.1608
     35 O         138.0914  138.2085  166.6049 O.2     1  UNL1       -0.3775
     36 C         138.3586  138.7173  165.2194 C.3     1  UNL1        0.2383
     37 C         138.7370  137.6604  162.8764 C.3     1  UNL1        0.0039
     38 C         139.2079  137.9166  164.2773 C.3     1  UNL1        0.0467
     39 C         140.5282  137.3722  164.7360 C.3     1  UNL1        0.0039
@<TRIPOS>BOND
     1    37    38    1
     2    38    39    1
     3    38    36    1
     4    36    35    1
     5    35    33    1
     6    33    34    2
     7    34    32    1
     8    32    31    1
     9    31    24    1
    10    24    25   ar
    11    25    26   ar
    12    26    27   ar
    13    27    23    1
    14    23     1    1
    15     1     2    1
    16     2     3    1
    17     3     4    1
    18     4     7    1
    19     7     8   am
    20     8     9    2
    21     8    11    1
    22    11    12   ar
    23    12    13   ar
    24    13    14    2
    25    13    15   ar
    26    15    16   ar
    27    16    17   ar
    28    17    18   ar
    29    18    19    1
    30    18    20   ar
    31    20    21   ar
    32    21    22   ar
    33     4     5    1
    34     5     6    1
    35    27    28   ar
    36    28    29   ar
    37    29    30    1
    38    29    24   ar
    39     6     1    1
    40    22    11   ar
    41    21    15   ar
    42     7    10    1
@<TRIPOS>MOLECULE
*****
 39 42 0 0 0
SMALL
GASTEIGER

@<TRIPOS>ATOM
      1 N         143.3187  140.9107  163.0291 N.3     1  UNL1       -0.2689
      2 C         143.9932  139.5721  163.0861 C.3     1  UNL1        0.0741
      3 C         143.6808  138.5303  162.0530 C.3     1  UNL1        0.0369
      4 C         142.6940  138.8271  160.9631 C.3     1  UNL1        0.0747
      5 C         142.0195  140.1657  160.9061 C.3     1  UNL1        0.0369
      6 C         142.3318  141.2075  161.9391 C.3     1  UNL1        0.0741
      7 N         142.3816  137.7853  159.9301 N.am    1  UNL1       -0.2999
      8 C         142.8147  137.9856  158.5080 C.2     1  UNL1        0.2806
      9 O         143.5601  139.2278  158.1189 O.2     1  UNL1       -0.2668
     10 H         141.8924  136.9700  160.1855 H       1  UNL1        0.1498
     11 C         142.5023  136.9438  157.4750 C.ar    1  UNL1        0.2014
     12 C         141.3670  137.1538  156.5175 C.ar    1  UNL1        0.0843
     13 C         141.0546  136.1120  155.4845 C.ar    1  UNL1        0.2018
     14 O         139.9193  136.3220  154.5269 O.2     1  UNL1       -0.2864
     15 C         141.8775  134.8601  155.4091 C.ar    1  UNL1        0.0737
     16 C         141.5651  133.8183  154.3762 C.ar    1  UNL1        0.0085
     17 C         142.3880  132.5665  154.3008 C.ar    1  UNL1        0.0299
     18 C         143.5233  132.3565  155.2584 C.ar    1  UNL1        0.1432
     19 F         144.3463  131.1046  155.1830 F       1  UNL1       -0.2041
     20 C         143.8357  133.3983  156.2913 C.ar    1  UNL1        0.0672
     21 C         143.0128  134.6501  156.3667 C.ar    1  UNL1        0.1508
     22 O         143.3252  135.6920  157.3997 O.2     1  UNL1       -0.4486
     23 C         143.6311  141.9525  164.0621 C.3     1  UNL1        0.0992
     24 C         141.1307  142.2432  167.7922 C.ar    1  UNL1        0.1663
     25 C         142.3864  141.4227  167.7930 C.ar    1  UNL1        0.0390
     26 C         143.2199  141.3258  166.5497 C.ar    1  UNL1        0.0003
     27 C         142.7976  142.0494  165.3055 C.ar    1  UNL1       -0.0037
     28 C         141.5419  142.8699  165.3046 C.ar    1  UNL1        0.0299
     29 C         140.7085  142.9668  166.5480 C.ar    1  UNL1        0.1736
     30 F         139.4527  143.7873  166.5471 F       1  UNL1       -0.2010
     31 O         140.2973  142.3401  169.0356 O.3     1  UNL1       -0.4666
     32 C         140.0275  141.1132  169.8552 C.3     1  UNL1        0.2556
     33 N         138.1248  139.5810  170.7397 N.2     1  UNL1       -0.0823
     34 C         138.7915  140.3009  169.6050 C.2     1  UNL1        0.1608
     35 O         136.8888  138.7687  170.4895 O.2     1  UNL1       -0.3775
     36 C         135.8148  138.6963  171.5341 C.3     1  UNL1        0.2383
     37 C         136.9444  136.6038  172.5809 C.3     1  UNL1        0.0039
     38 C         135.7796  137.5450  172.4950 C.3     1  UNL1        0.0467
     39 C         134.5795  137.3349  173.3700 C.3     1  UNL1        0.0039
@<TRIPOS>BOND
     1    37    38    1
     2    38    39    1
     3    38    36    1
     4    36    35    1
     5    35    33    1
     6    33    34    2
     7    34    32    1
     8    32    31    1
     9    31    24    1
    10    24    25   ar
    11    25    26   ar
    12    26    27   ar
    13    27    23    1
    14    23     1    1
    15     1     2    1
    16     2     3    1
    17     3     4    1
    18     4     7    1
    19     7     8   am
    20     8     9    2
    21     8    11    1
    22    11    12   ar
    23    12    13   ar
    24    13    14    2
    25    13    15   ar
    26    15    16   ar
    27    16    17   ar
    28    17    18   ar
    29    18    19    1
    30    18    20   ar
    31    20    21   ar
    32    21    22   ar
    33     4     5    1
    34     5     6    1
    35    27    28   ar
    36    28    29   ar
    37    29    30    1
    38    29    24   ar
    39     6     1    1
    40    22    11   ar
    41    21    15   ar
    42     7    10    1
@<TRIPOS>MOLECULE
*****
 39 42 0 0 0
SMALL
GASTEIGER

@<TRIPOS>ATOM
      1 N         143.8822  142.1376  161.1839 N.3     1  UNL1       -0.2689
      2 C         143.5437  142.4434  159.7550 C.3     1  UNL1        0.0741
      3 C         143.4625  141.3333  158.7493 C.3     1  UNL1        0.0369
      4 C         143.7198  139.9175  159.1726 C.3     1  UNL1        0.0747
      5 C         144.0583  139.6117  160.6016 C.3     1  UNL1        0.0369
      6 C         144.1395  140.7217  161.6072 C.3     1  UNL1        0.0741
      7 N         143.6386  138.8075  158.1670 N.am    1  UNL1       -0.2999
      8 C         142.4087  137.9520  158.0919 C.2     1  UNL1        0.2806
      9 O         141.2601  138.2065  159.0224 O.2     1  UNL1       -0.2668
     10 H         144.3924  138.6405  157.5563 H       1  UNL1        0.1498
     11 C         142.3276  136.8420  157.0862 C.ar    1  UNL1        0.2014
     12 C         141.3807  136.9475  155.9276 C.ar    1  UNL1        0.0843
     13 C         141.2995  135.8375  154.9220 C.ar    1  UNL1        0.2018
     14 O         140.3527  135.9430  153.7633 O.2     1  UNL1       -0.2864
     15 C         142.1652  134.6220  155.0749 C.ar    1  UNL1        0.0737
     16 C         142.0840  133.5121  154.0692 C.ar    1  UNL1        0.0085
     17 C         142.9496  132.2967  154.2222 C.ar    1  UNL1        0.0299
     18 C         143.8965  132.1912  155.3808 C.ar    1  UNL1        0.1432
     19 F         144.7621  130.9758  155.5337 F       1  UNL1       -0.2041
     20 C         143.9777  133.3012  156.3865 C.ar    1  UNL1        0.0672
     21 C         143.1120  134.5166  156.2335 C.ar    1  UNL1        0.1508
     22 O         143.1932  135.6266  157.2392 O.2     1  UNL1       -0.4486
     23 C         143.9634  143.2475  162.1895 C.3     1  UNL1        0.0992
     24 C         140.2534  144.6103  164.3410 C.ar    1  UNL1        0.1663
     25 C         141.1706  143.6134  164.9852 C.ar    1  UNL1        0.0390
     26 C         142.4072  143.1592  164.2681 C.ar    1  UNL1        0.0003
     27 C         142.7267  143.7018  162.9067 C.ar    1  UNL1       -0.0037
     28 C         141.8096  144.6987  162.2625 C.ar    1  UNL1        0.0299
     29 C         140.5730  145.1530  162.9797 C.ar    1  UNL1        0.1736
     30 F         139.6558  146.1499  162.3354 F       1  UNL1       -0.2010
     31 O         139.0168  145.0646  165.0582 O.3     1  UNL1       -0.4666
     32 C         137.7468  144.2757  164.9368 C.3     1  UNL1        0.2556
     33 N         137.3722  142.9267  162.7481 N.2     1  UNL1       -0.0823
     34 C         137.7433  142.9686  164.2009 C.2     1  UNL1        0.1608
     35 O         137.3687  141.6196  162.0123 O.2     1  UNL1       -0.3775
     36 C         138.6659  140.9598  161.6494 C.3     1  UNL1        0.2383
     37 C         140.7763  140.1616  162.9374 C.3     1  UNL1        0.0039
     38 C         139.3200  140.0120  162.6106 C.3     1  UNL1        0.0467
     39 C         138.5178  138.9148  163.2449 C.3     1  UNL1        0.0039
@<TRIPOS>BOND
     1    37    38    1
     2    38    39    1
     3    38    36    1
     4    36    35    1
     5    35    33    1
     6    33    34    2
     7    34    32    1
     8    32    31    1
     9    31    24    1
    10    24    25   ar
    11    25    26   ar
    12    26    27   ar
    13    27    23    1
    14    23     1    1
    15     1     2    1
    16     2     3    1
    17     3     4    1
    18     4     7    1
    19     7     8   am
    20     8     9    2
    21     8    11    1
    22    11    12   ar
    23    12    13   ar
    24    13    14    2
    25    13    15   ar
    26    15    16   ar
    27    16    17   ar
    28    17    18   ar
    29    18    19    1
    30    18    20   ar
    31    20    21   ar
    32    21    22   ar
    33     4     5    1
    34     5     6    1
    35    27    28   ar
    36    28    29   ar
    37    29    30    1
    38    29    24   ar
    39     6     1    1
    40    22    11   ar
    41    21    15   ar
    42     7    10    1
@<TRIPOS>MOLECULE
*****
 39 42 0 0 0
SMALL
GASTEIGER

@<TRIPOS>ATOM
      1 N         143.2329  141.1361  162.4016 N.3     1  UNL1       -0.2689
      2 C         142.0948  141.2059  161.4270 C.3     1  UNL1        0.0741
      3 C         141.8521  140.0724  160.4749 C.3     1  UNL1        0.0369
      4 C         142.7475  138.8691  160.4977 C.3     1  UNL1        0.0747
      5 C         143.8855  138.7993  161.4724 C.3     1  UNL1        0.0369
      6 C         144.1282  139.9328  162.4243 C.3     1  UNL1        0.0741
      7 N         142.5047  137.7356  159.5457 N.am    1  UNL1       -0.2999
      8 C         142.8928  137.8716  158.1031 C.2     1  UNL1        0.2806
      9 O         143.5236  139.1410  157.6126 O.2     1  UNL1       -0.2668
     10 H         142.0907  136.9025  159.8676 H       1  UNL1        0.1498
     11 C         142.6501  136.7380  157.1511 C.ar    1  UNL1        0.2014
     12 C         141.5493  136.8333  156.1366 C.ar    1  UNL1        0.0843
     13 C         141.3065  135.6999  155.1846 C.ar    1  UNL1        0.2018
     14 O         140.2058  135.7952  154.1701 O.2     1  UNL1       -0.2864
     15 C         142.1645  134.4710  155.2472 C.ar    1  UNL1        0.0737
     16 C         141.9218  133.3376  154.2952 C.ar    1  UNL1        0.0085
     17 C         142.7797  132.1088  154.3578 C.ar    1  UNL1        0.0299
     18 C         143.8805  132.0135  155.3724 C.ar    1  UNL1        0.1432
     19 F         144.7385  130.7846  155.4349 F       1  UNL1       -0.2041
     20 C         144.1232  133.1469  156.3243 C.ar    1  UNL1        0.0672
     21 C         143.2653  134.3757  156.2617 C.ar    1  UNL1        0.1508
     22 O         143.5080  135.5093  157.2137 O.2     1  UNL1       -0.4486
     23 C         143.4756  142.2696  163.3536 C.3     1  UNL1        0.0992
     24 C         141.2290  142.4572  167.2482 C.ar    1  UNL1        0.1663
     25 C         142.5679  141.7839  167.1864 C.ar    1  UNL1        0.0390
     26 C         143.3168  141.7214  165.8882 C.ar    1  UNL1        0.0003
     27 C         142.7267  142.3321  164.6518 C.ar    1  UNL1       -0.0037
     28 C         141.3878  143.0055  164.7136 C.ar    1  UNL1        0.0299
     29 C         140.6390  143.0680  166.0118 C.ar    1  UNL1        0.1736
     30 F         139.3000  143.7414  166.0736 F       1  UNL1       -0.2010
     31 O         140.4802  142.5198  168.5464 O.3     1  UNL1       -0.4666
     32 C         140.0782  141.2532  169.2421 C.3     1  UNL1        0.2556
     33 N         138.4882  139.5809  168.0482 N.2     1  UNL1       -0.0823
     34 C         139.8724  139.9957  168.4508 C.2     1  UNL1        0.1608
     35 O         138.2824  138.3233  167.2569 O.2     1  UNL1       -0.3775
     36 C         138.3100  138.3675  165.7578 C.3     1  UNL1        0.2383
     37 C         138.2386  140.7161  164.6492 C.3     1  UNL1        0.0039
     38 C         139.0075  139.4932  165.0534 C.3     1  UNL1        0.0467
     39 C         140.4739  139.3960  164.7531 C.3     1  UNL1        0.0039
@<TRIPOS>BOND
     1    37    38    1
     2    38    39    1
     3    38    36    1
     4    36    35    1
     5    35    33    1
     6    33    34    2
     7    34    32    1
     8    32    31    1
     9    31    24    1
    10    24    25   ar
    11    25    26   ar
    12    26    27   ar
    13    27    23    1
    14    23     1    1
    15     1     2    1
    16     2     3    1
    17     3     4    1
    18     4     7    1
    19     7     8   am
    20     8     9    2
    21     8    11    1
    22    11    12   ar
    23    12    13   ar
    24    13    14    2
    25    13    15   ar
    26    15    16   ar
    27    16    17   ar
    28    17    18   ar
    29    18    19    1
    30    18    20   ar
    31    20    21   ar
    32    21    22   ar
    33     4     5    1
    34     5     6    1
    35    27    28   ar
    36    28    29   ar
    37    29    30    1
    38    29    24   ar
    39     6     1    1
    40    22    11   ar
    41    21    15   ar
    42     7    10    1
@<TRIPOS>MOLECULE
*****
 39 42 0 0 0
SMALL
GASTEIGER

@<TRIPOS>ATOM
      1 N         142.8659  140.4144  162.7616 N.3     1  UNL1       -0.2689
      2 C         141.6548  139.5596  162.5322 C.3     1  UNL1        0.0741
      3 C         141.6765  138.4970  161.4736 C.3     1  UNL1        0.0369
      4 C         142.9091  138.2893  160.6445 C.3     1  UNL1        0.0747
      5 C         144.1201  139.1442  160.8739 C.3     1  UNL1        0.0369
      6 C         144.0985  140.2067  161.9325 C.3     1  UNL1        0.0741
      7 N         142.9307  137.2268  159.5860 N.am    1  UNL1       -0.2999
      8 C         142.3751  137.5148  158.2228 C.2     1  UNL1        0.2806
      9 O         141.7979  138.8653  157.9181 O.2     1  UNL1       -0.2668
     10 H         143.3095  136.3404  159.7859 H       1  UNL1        0.1498
     11 C         142.3967  136.4522  157.1642 C.ar    1  UNL1        0.2014
     12 C         141.5877  136.6237  155.9127 C.ar    1  UNL1        0.0843
     13 C         141.6093  135.5612  154.8542 C.ar    1  UNL1        0.2018
     14 O         140.8003  135.7327  153.6028 O.2     1  UNL1       -0.2864
     15 C         142.4399  134.3271  155.0471 C.ar    1  UNL1        0.0737
     16 C         142.4615  133.2645  153.9886 C.ar    1  UNL1        0.0085
     17 C         143.2920  132.0305  154.1815 C.ar    1  UNL1        0.0299
     18 C         144.1010  131.8590  155.4329 C.ar    1  UNL1        0.1432
     19 F         144.9316  130.6249  155.6258 F       1  UNL1       -0.2041
     20 C         144.0794  132.9215  156.4915 C.ar    1  UNL1        0.0672
     21 C         143.2489  134.1556  156.2986 C.ar    1  UNL1        0.1508
     22 O         143.2273  135.2182  157.3571 O.2     1  UNL1       -0.4486
     23 C         142.8443  141.4769  163.8202 C.3     1  UNL1        0.0992
     24 C         141.5364  140.4588  168.0038 C.ar    1  UNL1        0.1663
     25 C         142.3727  139.4892  167.2226 C.ar    1  UNL1        0.0390
     26 C         142.8086  139.8286  165.8280 C.ar    1  UNL1        0.0003
     27 C         142.4083  141.1376  165.2147 C.ar    1  UNL1       -0.0037
     28 C         141.5720  142.1072  165.9960 C.ar    1  UNL1        0.0299
     29 C         141.1360  141.7678  167.3905 C.ar    1  UNL1        0.1736
     30 F         140.2997  142.7375  168.1717 F       1  UNL1       -0.2010
     31 O         141.1004  140.1195  169.3984 O.3     1  UNL1       -0.4666
     32 C         142.0562  140.2805  170.5431 C.3     1  UNL1        0.2556
     33 N         143.0661  137.8993  170.2974 N.2     1  UNL1       -0.0823
     34 C         143.2147  139.3392  170.6909 C.2     1  UNL1        0.1608
     35 O         144.2246  136.9580  170.4453 O.2     1  UNL1       -0.3775
     36 C         144.1792  135.8689  171.4756 C.3     1  UNL1        0.2383
     37 C         146.2600  136.7822  172.7351 C.3     1  UNL1        0.0039
     38 C         145.3558  135.6401  172.3774 C.3     1  UNL1        0.0467
     39 C         145.6282  134.2691  172.9216 C.3     1  UNL1        0.0039
@<TRIPOS>BOND
     1    37    38    1
     2    38    39    1
     3    38    36    1
     4    36    35    1
     5    35    33    1
     6    33    34    2
     7    34    32    1
     8    32    31    1
     9    31    24    1
    10    24    25   ar
    11    25    26   ar
    12    26    27   ar
    13    27    23    1
    14    23     1    1
    15     1     2    1
    16     2     3    1
    17     3     4    1
    18     4     7    1
    19     7     8   am
    20     8     9    2
    21     8    11    1
    22    11    12   ar
    23    12    13   ar
    24    13    14    2
    25    13    15   ar
    26    15    16   ar
    27    16    17   ar
    28    17    18   ar
    29    18    19    1
    30    18    20   ar
    31    20    21   ar
    32    21    22   ar
    33     4     5    1
    34     5     6    1
    35    27    28   ar
    36    28    29   ar
    37    29    30    1
    38    29    24   ar
    39     6     1    1
    40    22    11   ar
    41    21    15   ar
    42     7    10    1
@<TRIPOS>MOLECULE
*****
 39 42 0 0 0
SMALL
GASTEIGER

@<TRIPOS>ATOM
      1 N         143.7822  139.2857  162.4102 N.3     1  UNL1       -0.2689
      2 C         143.9009  140.4010  161.4143 C.3     1  UNL1        0.0741
      3 C         143.1025  140.3612  160.1450 C.3     1  UNL1        0.0369
      4 C         142.1854  139.2061  159.8717 C.3     1  UNL1        0.0747
      5 C         142.0667  138.0908  160.8676 C.3     1  UNL1        0.0369
      6 C         142.8651  138.1305  162.1369 C.3     1  UNL1        0.0741
      7 N         141.3871  139.1664  158.6024 N.am    1  UNL1       -0.2999
      8 C         139.9703  139.6589  158.5918 C.2     1  UNL1        0.2806
      9 O         139.3519  140.1912  159.8504 O.2     1  UNL1       -0.2668
     10 H         141.7930  138.8170  157.7763 H       1  UNL1        0.1498
     11 C         139.1720  139.6191  157.3224 C.ar    1  UNL1        0.2014
     12 C         139.7139  138.9088  156.1176 C.ar    1  UNL1        0.0843
     13 C         138.9157  138.8690  154.8483 C.ar    1  UNL1        0.2018
     14 O         139.4576  138.1586  153.6434 O.2     1  UNL1       -0.2864
     15 C         137.5754  139.5395  154.7838 C.ar    1  UNL1        0.0737
     16 C         136.7771  139.4997  153.5145 C.ar    1  UNL1        0.0085
     17 C         135.4370  140.1703  153.4501 C.ar    1  UNL1        0.0299
     18 C         134.8950  140.8807  154.6549 C.ar    1  UNL1        0.1432
     19 F         133.5548  141.5512  154.5904 F       1  UNL1       -0.2041
     20 C         135.6933  140.9205  155.9242 C.ar    1  UNL1        0.0672
     21 C         137.0335  140.2499  155.9886 C.ar    1  UNL1        0.1508
     22 O         137.8318  140.2897  157.2580 O.2     1  UNL1       -0.4486
     23 C         144.5805  139.3254  163.6795 C.3     1  UNL1        0.0992
     24 C         142.5222  140.0788  167.6096 C.ar    1  UNL1        0.1663
     25 C         143.0487  138.7114  167.2887 C.ar    1  UNL1        0.0390
     26 C         143.7348  138.4603  165.9787 C.ar    1  UNL1        0.0003
     27 C         143.8944  139.5765  164.9895 C.ar    1  UNL1       -0.0037
     28 C         143.3678  140.9439  165.3104 C.ar    1  UNL1        0.0299
     29 C         142.6817  141.1950  166.6204 C.ar    1  UNL1        0.1736
     30 F         142.1551  142.5625  166.9412 F       1  UNL1       -0.2010
     31 O         141.8360  140.3299  168.9196 O.3     1  UNL1       -0.4666
     32 C         140.3408  140.2535  169.0099 C.3     1  UNL1        0.2556
     33 N         138.4667  139.0409  167.6803 N.2     1  UNL1       -0.0823
     34 C         139.5207  140.1051  167.7627 C.2     1  UNL1        0.1608
     35 O         137.6466  138.8925  166.4331 O.2     1  UNL1       -0.3775
     36 C         138.2066  139.3269  165.1112 C.3     1  UNL1        0.2383
     37 C         140.2404  137.7265  164.8825 C.3     1  UNL1        0.0039
     38 C         139.0218  138.3712  164.2914 C.3     1  UNL1        0.0467
     39 C         138.6184  138.0601  162.8806 C.3     1  UNL1        0.0039
@<TRIPOS>BOND
     1    37    38    1
     2    38    39    1
     3    38    36    1
     4    36    35    1
     5    35    33    1
     6    33    34    2
     7    34    32    1
     8    32    31    1
     9    31    24    1
    10    24    25   ar
    11    25    26   ar
    12    26    27   ar
    13    27    23    1
    14    23     1    1
    15     1     2    1
    16     2     3    1
    17     3     4    1
    18     4     7    1
    19     7     8   am
    20     8     9    2
    21     8    11    1
    22    11    12   ar
    23    12    13   ar
    24    13    14    2
    25    13    15   ar
    26    15    16   ar
    27    16    17   ar
    28    17    18   ar
    29    18    19    1
    30    18    20   ar
    31    20    21   ar
    32    21    22   ar
    33     4     5    1
    34     5     6    1
    35    27    28   ar
    36    28    29   ar
    37    29    30    1
    38    29    24   ar
    39     6     1    1
    40    22    11   ar
    41    21    15   ar
    42     7    10    1
@<TRIPOS>MOLECULE
*****
 39 42 0 0 0
SMALL
GASTEIGER

@<TRIPOS>ATOM
      1 N         142.9262  141.2739  158.6784 N.3     1  UNL1       -0.2689
      2 C         142.1648  140.7339  157.5043 C.3     1  UNL1        0.0741
      3 C         142.0368  139.2519  157.3107 C.3     1  UNL1        0.0369
      4 C         142.6704  138.3100  158.2912 C.3     1  UNL1        0.0747
      5 C         143.4319  138.8500  159.4653 C.3     1  UNL1        0.0369
      6 C         143.5598  140.3319  159.6589 C.3     1  UNL1        0.0741
      7 N         142.5424  136.8281  158.0975 N.am    1  UNL1       -0.2999
      8 C         143.2672  136.1536  156.9707 C.2     1  UNL1        0.2806
      9 O         144.1200  136.9610  156.0375 O.2     1  UNL1       -0.2668
     10 H         141.9827  136.2981  158.7100 H       1  UNL1        0.1498
     11 C         143.1392  134.6716  156.7771 C.ar    1  UNL1        0.2014
     12 C         144.0995  133.7408  157.4564 C.ar    1  UNL1        0.0843
     13 C         143.9716  132.2589  157.2628 C.ar    1  UNL1        0.2018
     14 O         144.9319  131.3281  157.9421 O.2     1  UNL1       -0.2864
     15 C         142.8833  131.7077  156.3899 C.ar    1  UNL1        0.0737
     16 C         142.7554  130.2258  156.1963 C.ar    1  UNL1        0.0085
     17 C         141.6672  129.6747  155.3234 C.ar    1  UNL1        0.0299
     18 C         140.7069  130.6055  154.6441 C.ar    1  UNL1        0.1432
     19 F         139.6186  130.0543  153.7711 F       1  UNL1       -0.2041
     20 C         140.8348  132.0874  154.8377 C.ar    1  UNL1        0.0672
     21 C         141.9230  132.6385  155.7105 C.ar    1  UNL1        0.1508
     22 O         142.0510  134.1205  155.9042 O.2     1  UNL1       -0.4486
     23 C         143.0542  142.7558  158.8721 C.3     1  UNL1        0.0992
     24 C         140.4145  144.8736  161.8380 C.ar    1  UNL1        0.1663
     25 C         139.9278  144.6312  160.4401 C.ar    1  UNL1        0.0390
     26 C         140.8077  143.9253  159.4514 C.ar    1  UNL1        0.0003
     27 C         142.1743  143.4617  159.8607 C.ar    1  UNL1       -0.0037
     28 C         142.6610  143.7041  161.2587 C.ar    1  UNL1        0.0299
     29 C         141.7810  144.4101  162.2473 C.ar    1  UNL1        0.1736
     30 F         142.2678  144.6525  163.6454 F       1  UNL1       -0.2010
     31 O         139.5346  145.5795  162.8267 O.3     1  UNL1       -0.4666
     32 C         138.7889  144.7923  163.8631 C.3     1  UNL1        0.2556
     33 N         137.4487  142.8936  162.7017 N.2     1  UNL1       -0.0823
     34 C         138.5260  143.3311  163.6495 C.2     1  UNL1        0.1608
     35 O         137.1857  141.4324  162.4881 O.2     1  UNL1       -0.3775
     36 C         138.0804  140.4088  163.1219 C.3     1  UNL1        0.2383
     37 C         138.8540  137.9355  163.3077 C.3     1  UNL1        0.0039
     38 C         138.1702  139.0287  162.5412 C.3     1  UNL1        0.0467
     39 C         137.5764  138.7417  161.1941 C.3     1  UNL1        0.0039
@<TRIPOS>BOND
     1    37    38    1
     2    38    39    1
     3    38    36    1
     4    36    35    1
     5    35    33    1
     6    33    34    2
     7    34    32    1
     8    32    31    1
     9    31    24    1
    10    24    25   ar
    11    25    26   ar
    12    26    27   ar
    13    27    23    1
    14    23     1    1
    15     1     2    1
    16     2     3    1
    17     3     4    1
    18     4     7    1
    19     7     8   am
    20     8     9    2
    21     8    11    1
    22    11    12   ar
    23    12    13   ar
    24    13    14    2
    25    13    15   ar
    26    15    16   ar
    27    16    17   ar
    28    17    18   ar
    29    18    19    1
    30    18    20   ar
    31    20    21   ar
    32    21    22   ar
    33     4     5    1
    34     5     6    1
    35    27    28   ar
    36    28    29   ar
    37    29    30    1
    38    29    24   ar
    39     6     1    1
    40    22    11   ar
    41    21    15   ar
    42     7    10    1
@<TRIPOS>MOLECULE
*****
 39 42 0 0 0
SMALL
GASTEIGER

@<TRIPOS>ATOM
      1 N         141.3262  138.4094  157.8792 N.3     1  UNL1       -0.2689
      2 C         139.8868  138.4061  158.3011 C.3     1  UNL1        0.0741
      3 C         139.5167  138.7729  159.7078 C.3     1  UNL1        0.0369
      4 C         140.5861  139.1431  160.6924 C.3     1  UNL1        0.0747
      5 C         142.0255  139.1464  160.2704 C.3     1  UNL1        0.0369
      6 C         142.3956  138.7796  158.8639 C.3     1  UNL1        0.0741
      7 N         140.2160  139.5099  162.0989 N.am    1  UNL1       -0.2999
      8 C         140.2505  138.4697  163.1791 C.2     1  UNL1        0.2806
      9 O         140.6551  137.0627  162.8527 O.2     1  UNL1       -0.2668
     10 H         139.9505  140.4334  162.3131 H       1  UNL1        0.1498
     11 C         139.8804  138.8366  164.5857 C.ar    1  UNL1        0.2014
     12 C         138.6835  138.2071  165.2348 C.ar    1  UNL1        0.0843
     13 C         138.3134  138.5740  166.6413 C.ar    1  UNL1        0.2018
     14 O         137.1165  137.9445  167.2904 O.2     1  UNL1       -0.2864
     15 C         139.1401  139.5703  167.3989 C.ar    1  UNL1        0.0737
     16 C         138.7700  139.9372  168.8054 C.ar    1  UNL1        0.0085
     17 C         139.5968  140.9335  169.5629 C.ar    1  UNL1        0.0299
     18 C         140.7936  141.5630  168.9138 C.ar    1  UNL1        0.1432
     19 F         141.6204  142.5593  169.6714 F       1  UNL1       -0.2041
     20 C         141.1637  141.1961  167.5073 C.ar    1  UNL1        0.0672
     21 C         140.3370  140.1998  166.7498 C.ar    1  UNL1        0.1508
     22 O         140.7071  139.8329  165.3432 O.2     1  UNL1       -0.4486
     23 C         141.6963  138.0426  156.4726 C.3     1  UNL1        0.0992
     24 C         142.8431  133.8059  155.4798 C.ar    1  UNL1        0.1663
     25 C         141.8086  134.5153  154.6572 C.ar    1  UNL1        0.0390
     26 C         141.4264  135.9275  154.9882 C.ar    1  UNL1        0.0003
     27 C         142.0786  136.6303  156.1417 C.ar    1  UNL1       -0.0037
     28 C         143.1130  135.9210  156.9643 C.ar    1  UNL1        0.0299
     29 C         143.4952  134.5087  156.6333 C.ar    1  UNL1        0.1736
     30 F         144.5297  133.7993  157.4560 F       1  UNL1       -0.2010
     31 O         143.2253  132.3937  155.1488 O.3     1  UNL1       -0.4666
     32 C         142.5469  131.2506  155.8438 C.3     1  UNL1        0.2556
     33 N         144.3934  130.1094  157.2714 N.2     1  UNL1       -0.0823
     34 C         143.0525  130.7746  157.1733 C.2     1  UNL1        0.1608
     35 O         144.8990  129.6334  158.6010 O.2     1  UNL1       -0.3775
     36 C         144.9783  128.1639  158.8909 C.3     1  UNL1        0.2383
     37 C         145.2669  127.5026  161.3868 C.3     1  UNL1        0.0039
     38 C         144.4044  127.6188  160.1651 C.3     1  UNL1        0.0467
     39 C         142.9680  127.1898  160.2176 C.3     1  UNL1        0.0039
@<TRIPOS>BOND
     1    37    38    1
     2    38    39    1
     3    38    36    1
     4    36    35    1
     5    35    33    1
     6    33    34    2
     7    34    32    1
     8    32    31    1
     9    31    24    1
    10    24    25   ar
    11    25    26   ar
    12    26    27   ar
    13    27    23    1
    14    23     1    1
    15     1     2    1
    16     2     3    1
    17     3     4    1
    18     4     7    1
    19     7     8   am
    20     8     9    2
    21     8    11    1
    22    11    12   ar
    23    12    13   ar
    24    13    14    2
    25    13    15   ar
    26    15    16   ar
    27    16    17   ar
    28    17    18   ar
    29    18    19    1
    30    18    20   ar
    31    20    21   ar
    32    21    22   ar
    33     4     5    1
    34     5     6    1
    35    27    28   ar
    36    28    29   ar
    37    29    30    1
    38    29    24   ar
    39     6     1    1
    40    22    11   ar
    41    21    15   ar
    42     7    10    1
