@<TRIPOS>MOLECULE
*****
 39 42 0 0 0
SMALL
GASTEIGER

@<TRIPOS>ATOM
      1 C         141.0929  139.1473  158.4278 C.3     1  UNL1        0.1031
      2 C         140.6004  143.0578  157.9635 C.ar    1  UNL1        0.0529
      3 C         141.4852  143.3164  156.7802 C.ar    1  UNL1        0.0147
      4 C         142.2393  142.1854  156.1461 C.ar    1  UNL1        0.0010
      5 C         142.1085  140.7957  156.6953 C.ar    1  UNL1       -0.0026
      6 C         141.2237  140.5371  157.8786 C.ar    1  UNL1       -0.0024
      7 C         140.4697  141.6681  158.5127 C.ar    1  UNL1        0.0121
      8 C         140.5182  145.0595  159.6178 C.2     1  UNL1        0.4054
      9 O         141.9442  144.7990  160.0038 O.2     1  UNL1       -0.2261
     10 N         139.8464  144.1889  158.5977 N.am    1  UNL1       -0.2499
     11 H         138.9106  144.3599  158.3443 H       1  UNL1        0.1582
     12 O         139.7642  146.1906  160.2519 O.3     1  UNL1       -0.4345
     13 C         139.5040  144.9921  162.5424 C.3     1  UNL1        0.0513
     14 C         139.6256  146.2562  161.7441 C.3     1  UNL1        0.2102
     15 C         140.6791  138.9406  159.8547 C.ar    1  UNL1       -0.0036
     16 C         141.5876  139.3692  160.9687 C.ar    1  UNL1       -0.0025
     17 C         141.1737  139.1625  162.3956 C.ar    1  UNL1        0.0042
     18 C         139.8514  138.5273  162.7085 C.ar    1  UNL1        0.0536
     19 C         138.9429  138.0987  161.5945 C.ar    1  UNL1        0.0042
     20 C         139.3567  138.3054  160.1676 C.ar    1  UNL1       -0.0025
     21 C         139.4376  138.3206  164.1353 C.2     1  UNL1        0.2490
     22 O         139.9357  137.1271  164.8954 O.2     1  UNL1       -0.2699
     23 N         138.5257  139.3074  164.8022 N.am    1  UNL1       -0.2761
     24 C         138.1119  139.1006  166.2292 C.3     1  UNL1        0.0938
     25 C         139.0207  139.5286  167.3431 C.3     1  UNL1        0.0233
     26 C         138.0277  140.5008  164.0423 C.3     1  UNL1        0.0938
     27 C         138.1663  141.8745  164.6285 C.3     1  UNL1        0.0233
     28 N         141.3760  137.9643  157.5501 N.3     1  UNL1       -0.2644
     29 C         142.6791  137.2321  157.6754 C.3     1  UNL1        0.0901
     30 C         142.9621  136.0491  156.7977 C.3     1  UNL1        0.0900
     31 N         141.9420  135.5983  155.7947 N.3     1  UNL1       -0.2652
     32 C         140.6388  136.3305  155.6693 C.3     1  UNL1        0.0900
     33 C         140.3558  137.5135  156.5470 C.3     1  UNL1        0.0901
     34 C         142.2251  134.4153  154.9170 C.3     1  UNL1        0.1193
     35 C         142.7341  133.1393  155.5192 C.ar    1  UNL1        0.0823
     36 C         143.5810  132.1135  154.8260 C.ar    1  UNL1        0.0530
     37 S         143.8560  131.0053  155.7987 S.2     1  UNL1       -0.0643
     38 C         143.1789  131.3462  157.0931 C.ar    1  UNL1        0.1341
     39 N         142.4856  132.6650  156.9203 N.ar    1  UNL1       -0.2392
@<TRIPOS>BOND
     1    13    14    1
     2    14    12    1
     3    12     8    1
     4     8     9    2
     5     8    10   am
     6    10     2    1
     7     2     3   ar
     8     3     4   ar
     9     4     5   ar
    10     5     6   ar
    11     6     1    1
    12     1    15    1
    13    15    16   ar
    14    16    17   ar
    15    17    18   ar
    16    18    21    1
    17    21    22    2
    18    21    23   am
    19    23    24    1
    20    24    25    1
    21    23    26    1
    22    26    27    1
    23    18    19   ar
    24    19    20   ar
    25     1    28    1
    26    28    29    1
    27    29    30    1
    28    30    31    1
    29    31    34    1
    30    34    35    1
    31    35    36   ar
    32    36    37   ar
    33    37    38   ar
    34    38    39   ar
    35    31    32    1
    36    32    33    1
    37     6     7   ar
    38     7     2   ar
    39    20    15   ar
    40    33    28    1
    41    39    35   ar
    42    10    11    1
@<TRIPOS>MOLECULE
*****
 39 42 0 0 0
SMALL
GASTEIGER

@<TRIPOS>ATOM
      1 C         144.1462  142.2410  158.9457 C.3     1  UNL1        0.1031
      2 C         140.5979  143.9510  159.4309 C.ar    1  UNL1        0.0529
      3 C         140.4300  144.6360  158.1071 C.ar    1  UNL1        0.0147
      4 C         141.5008  144.5228  157.0628 C.ar    1  UNL1        0.0010
      5 C         142.7395  143.7245  157.3423 C.ar    1  UNL1       -0.0026
      6 C         142.9074  143.0394  158.6661 C.ar    1  UNL1       -0.0024
      7 C         141.8366  143.1527  159.7104 C.ar    1  UNL1        0.0121
      8 C         138.6144  142.9043  160.7424 C.2     1  UNL1        0.4054
      9 O         138.7725  141.6310  159.9653 O.2     1  UNL1       -0.2261
     10 N         139.5270  144.0642  160.4751 N.am    1  UNL1       -0.2499
     11 H         139.4233  144.8999  160.9851 H       1  UNL1        0.1582
     12 O         137.5435  143.0175  161.7866 O.3     1  UNL1       -0.4345
     13 C         137.7669  143.5084  164.3281 C.3     1  UNL1        0.0513
     14 C         137.8051  142.5391  163.1841 C.3     1  UNL1        0.2102
     15 C         145.2480  142.1856  157.9294 C.ar    1  UNL1       -0.0036
     16 C         145.1312  141.2719  156.7456 C.ar    1  UNL1       -0.0025
     17 C         146.2331  141.2165  155.7292 C.ar    1  UNL1        0.0042
     18 C         147.4518  142.0749  155.8968 C.ar    1  UNL1        0.0536
     19 C         147.5686  142.9886  157.0806 C.ar    1  UNL1        0.0042
     20 C         146.4668  143.0440  158.0969 C.ar    1  UNL1       -0.0025
     21 C         148.5536  142.0195  154.8805 C.2     1  UNL1        0.2490
     22 O         149.7938  141.2238  155.1615 O.2     1  UNL1       -0.2699
     23 N         148.4153  142.7597  153.5832 N.am    1  UNL1       -0.2761
     24 C         149.5172  142.7042  152.5669 C.3     1  UNL1        0.0938
     25 C         150.7084  143.6058  152.7023 C.3     1  UNL1        0.0233
     26 C         147.1751  143.5553  153.3022 C.3     1  UNL1        0.0938
     27 C         147.1384  145.0221  153.6138 C.3     1  UNL1        0.0233
     28 N         144.2831  141.4981  160.2415 N.3     1  UNL1       -0.2644
     29 C         144.8936  142.1745  161.4330 C.3     1  UNL1        0.0901
     30 C         145.0304  141.4316  162.7289 C.3     1  UNL1        0.0900
     31 N         144.5569  140.0122  162.8333 N.3     1  UNL1       -0.2652
     32 C         143.9464  139.3357  161.6418 C.3     1  UNL1        0.0900
     33 C         143.8095  140.0786  160.3459 C.3     1  UNL1        0.0901
     34 C         144.6937  139.2693  164.1292 C.3     1  UNL1        0.1193
     35 C         143.7727  139.5786  165.2719 C.ar    1  UNL1        0.0823
     36 C         143.3889  138.6371  166.3748 C.ar    1  UNL1        0.0530
     37 S         142.4528  139.3604  167.2970 S.2     1  UNL1       -0.0643
     38 C         142.2580  140.7489  166.7640 C.ar    1  UNL1        0.1341
     39 N         143.0737  140.8838  165.5125 N.ar    1  UNL1       -0.2392
@<TRIPOS>BOND
     1    13    14    1
     2    14    12    1
     3    12     8    1
     4     8     9    2
     5     8    10   am
     6    10     2    1
     7     2     3   ar
     8     3     4   ar
     9     4     5   ar
    10     5     6   ar
    11     6     1    1
    12     1    15    1
    13    15    16   ar
    14    16    17   ar
    15    17    18   ar
    16    18    21    1
    17    21    22    2
    18    21    23   am
    19    23    24    1
    20    24    25    1
    21    23    26    1
    22    26    27    1
    23    18    19   ar
    24    19    20   ar
    25     1    28    1
    26    28    29    1
    27    29    30    1
    28    30    31    1
    29    31    34    1
    30    34    35    1
    31    35    36   ar
    32    36    37   ar
    33    37    38   ar
    34    38    39   ar
    35    31    32    1
    36    32    33    1
    37     6     7   ar
    38     7     2   ar
    39    20    15   ar
    40    33    28    1
    41    39    35   ar
    42    10    11    1
@<TRIPOS>MOLECULE
*****
 39 42 0 0 0
SMALL
GASTEIGER

@<TRIPOS>ATOM
      1 C         142.7131  138.1042  157.6857 C.3     1  UNL1        0.1031
      2 C         143.2220  134.6507  155.7977 C.ar    1  UNL1        0.0529
      3 C         141.9619  134.5826  154.9869 C.ar    1  UNL1        0.0147
      4 C         140.9522  135.6883  155.0756 C.ar    1  UNL1        0.0010
      5 C         141.2026  136.8622  155.9752 C.ar    1  UNL1       -0.0026
      6 C         142.4627  136.9303  156.7861 C.ar    1  UNL1       -0.0024
      7 C         143.4724  135.8246  156.6973 C.ar    1  UNL1        0.0121
      8 C         144.0013  132.2581  156.4443 C.2     1  UNL1        0.4054
      9 O         142.7611  132.0769  157.2685 O.2     1  UNL1       -0.2261
     10 N         144.2317  133.5450  155.7090 N.am    1  UNL1       -0.2499
     11 H         145.0457  133.6639  155.1681 H       1  UNL1        0.1582
     12 O         145.0110  131.1524  156.3556 O.3     1  UNL1       -0.4345
     13 C         144.6888  129.7492  154.1929 C.3     1  UNL1        0.0513
     14 C         144.6495  129.8585  155.6884 C.3     1  UNL1        0.2102
     15 C         142.0389  138.1812  159.0234 C.ar    1  UNL1       -0.0036
     16 C         140.6607  138.7625  159.1364 C.ar    1  UNL1       -0.0025
     17 C         139.9865  138.8395  160.4742 C.ar    1  UNL1        0.0042
     18 C         140.6905  138.3352  161.6989 C.ar    1  UNL1        0.0536
     19 C         142.0687  137.7539  161.5860 C.ar    1  UNL1        0.0042
     20 C         142.7429  137.6769  160.2483 C.ar    1  UNL1       -0.0025
     21 C         140.0163  138.4122  163.0366 C.2     1  UNL1        0.2490
     22 O         139.0266  137.3594  163.4394 O.2     1  UNL1       -0.2699
     23 N         140.3318  139.5419  163.9716 N.am    1  UNL1       -0.2761
     24 C         139.6575  139.6189  165.3093 C.3     1  UNL1        0.0938
     25 C         138.2249  140.0536  165.4032 C.3     1  UNL1        0.0233
     26 C         141.3214  140.5947  163.5688 C.3     1  UNL1        0.0938
     27 C         142.7400  140.5137  164.0497 C.3     1  UNL1        0.0233
     28 N         143.6377  139.2011  157.2476 N.3     1  UNL1       -0.2644
     29 C         143.9083  140.3622  158.1578 C.3     1  UNL1        0.0901
     30 C         144.8329  141.4591  157.7197 C.3     1  UNL1        0.0900
     31 N         145.4870  141.3948  156.3714 N.3     1  UNL1       -0.2652
     32 C         145.2164  140.2336  155.4611 C.3     1  UNL1        0.0900
     33 C         144.2918  139.1368  155.8992 C.3     1  UNL1        0.0901
     34 C         146.4116  142.4917  155.9333 C.3     1  UNL1        0.1193
     35 C         147.7212  142.1542  155.2843 C.ar    1  UNL1        0.0823
     36 C         147.9854  142.0979  153.8088 C.ar    1  UNL1        0.0530
     37 S         149.4239  141.7227  153.6095 S.2     1  UNL1       -0.0643
     38 C         150.0488  141.5471  154.9619 C.ar    1  UNL1        0.1341
     39 N         148.9964  141.8138  155.9969 N.ar    1  UNL1       -0.2392
@<TRIPOS>BOND
     1    13    14    1
     2    14    12    1
     3    12     8    1
     4     8     9    2
     5     8    10   am
     6    10     2    1
     7     2     3   ar
     8     3     4   ar
     9     4     5   ar
    10     5     6   ar
    11     6     1    1
    12     1    15    1
    13    15    16   ar
    14    16    17   ar
    15    17    18   ar
    16    18    21    1
    17    21    22    2
    18    21    23   am
    19    23    24    1
    20    24    25    1
    21    23    26    1
    22    26    27    1
    23    18    19   ar
    24    19    20   ar
    25     1    28    1
    26    28    29    1
    27    29    30    1
    28    30    31    1
    29    31    34    1
    30    34    35    1
    31    35    36   ar
    32    36    37   ar
    33    37    38   ar
    34    38    39   ar
    35    31    32    1
    36    32    33    1
    37     6     7   ar
    38     7     2   ar
    39    20    15   ar
    40    33    28    1
    41    39    35   ar
    42    10    11    1
@<TRIPOS>MOLECULE
*****
 39 42 0 0 0
SMALL
GASTEIGER

@<TRIPOS>ATOM
      1 C         141.4416  139.4698  158.3129 C.3     1  UNL1        0.1031
      2 C         144.0233  142.2873  157.2421 C.ar    1  UNL1        0.0529
      3 C         143.1157  143.2491  156.5341 C.ar    1  UNL1        0.0147
      4 C         141.6501  142.9511  156.4190 C.ar    1  UNL1        0.0010
      5 C         141.0921  141.6914  157.0119 C.ar    1  UNL1       -0.0026
      6 C         141.9996  140.7296  157.7199 C.ar    1  UNL1       -0.0024
      7 C         143.4652  141.0276  157.8350 C.ar    1  UNL1        0.0121
      8 C         146.4339  142.1260  156.2867 C.2     1  UNL1        0.4054
      9 O         145.9133  141.3687  155.1011 O.2     1  UNL1       -0.2261
     10 N         145.4888  142.5853  157.3571 N.am    1  UNL1       -0.2499
     11 H         145.8305  143.0824  158.1353 H       1  UNL1        0.1582
     12 O         147.8995  142.4240  156.4018 O.3     1  UNL1       -0.4345
     13 C         149.2267  142.2438  154.1756 C.3     1  UNL1        0.0513
     14 C         148.8827  141.6999  155.5305 C.3     1  UNL1        0.2102
     15 C         140.7406  139.5112  159.6384 C.ar    1  UNL1       -0.0036
     16 C         141.1851  140.4821  160.6919 C.ar    1  UNL1       -0.0025
     17 C         140.4840  140.5234  162.0174 C.ar    1  UNL1        0.0042
     18 C         139.3386  139.5939  162.2894 C.ar    1  UNL1        0.0536
     19 C         138.8942  138.6230  161.2359 C.ar    1  UNL1        0.0042
     20 C         139.5951  138.5816  159.9104 C.ar    1  UNL1       -0.0025
     21 C         138.6376  139.6353  163.6148 C.2     1  UNL1        0.2490
     22 O         137.6017  140.6865  163.8829 O.2     1  UNL1       -0.2699
     23 N         138.9726  138.6254  164.6722 N.am    1  UNL1       -0.2761
     24 C         138.2715  138.6668  165.9977 C.3     1  UNL1        0.0938
     25 C         138.8601  139.4505  167.1333 C.3     1  UNL1        0.0233
     26 C         140.0084  137.5742  164.4042 C.3     1  UNL1        0.0938
     27 C         141.4366  137.8113  164.7967 C.3     1  UNL1        0.0233
     28 N         141.5846  138.1687  157.5804 N.3     1  UNL1       -0.2644
     29 C         140.5958  137.7944  156.5165 C.3     1  UNL1        0.0901
     30 C         140.7388  136.4932  155.7839 C.3     1  UNL1        0.0900
     31 N         141.8706  135.5664  156.1154 N.3     1  UNL1       -0.2652
     32 C         142.8595  135.9407  157.1794 C.3     1  UNL1        0.0900
     33 C         142.7165  137.2418  157.9119 C.3     1  UNL1        0.0901
     34 C         142.0136  134.2653  155.3828 C.3     1  UNL1        0.1193
     35 C         142.8437  133.1619  155.9689 C.ar    1  UNL1        0.0823
     36 C         144.3173  132.9655  155.7687 C.ar    1  UNL1        0.0530
     37 S         144.7303  131.7435  156.5341 S.2     1  UNL1       -0.0643
     38 C         143.5119  131.1845  157.2074 C.ar    1  UNL1        0.1341
     39 N         142.3460  132.0612  156.8581 N.ar    1  UNL1       -0.2392
@<TRIPOS>BOND
     1    13    14    1
     2    14    12    1
     3    12     8    1
     4     8     9    2
     5     8    10   am
     6    10     2    1
     7     2     3   ar
     8     3     4   ar
     9     4     5   ar
    10     5     6   ar
    11     6     1    1
    12     1    15    1
    13    15    16   ar
    14    16    17   ar
    15    17    18   ar
    16    18    21    1
    17    21    22    2
    18    21    23   am
    19    23    24    1
    20    24    25    1
    21    23    26    1
    22    26    27    1
    23    18    19   ar
    24    19    20   ar
    25     1    28    1
    26    28    29    1
    27    29    30    1
    28    30    31    1
    29    31    34    1
    30    34    35    1
    31    35    36   ar
    32    36    37   ar
    33    37    38   ar
    34    38    39   ar
    35    31    32    1
    36    32    33    1
    37     6     7   ar
    38     7     2   ar
    39    20    15   ar
    40    33    28    1
    41    39    35   ar
    42    10    11    1
@<TRIPOS>MOLECULE
*****
 39 42 0 0 0
SMALL
GASTEIGER

@<TRIPOS>ATOM
      1 C         141.9184  138.8775  158.4560 C.3     1  UNL1        0.1031
      2 C         143.4164  142.4346  159.3797 C.ar    1  UNL1        0.0529
      3 C         144.2854  142.6950  158.1851 C.ar    1  UNL1        0.0147
      4 C         144.3654  141.6830  157.0809 C.ar    1  UNL1        0.0010
      5 C         143.5764  140.4105  157.1712 C.ar    1  UNL1       -0.0026
      6 C         142.7074  140.1500  158.3657 C.ar    1  UNL1       -0.0024
      7 C         142.6274  141.1621  159.4699 C.ar    1  UNL1        0.0121
      8 C         144.2358  143.3261  161.6783 C.2     1  UNL1        0.4054
      9 O         145.2152  142.1935  161.7685 O.2     1  UNL1       -0.2261
     10 N         143.3364  143.4466  160.4839 N.am    1  UNL1       -0.2499
     11 H         142.6936  144.1900  160.4247 H       1  UNL1        0.1582
     12 O         144.1557  144.3382  162.7825 O.3     1  UNL1       -0.4345
     13 C         144.4582  143.2548  165.1245 C.3     1  UNL1        0.0513
     14 C         143.5911  143.9494  164.1168 C.3     1  UNL1        0.2102
     15 C         141.8656  137.9429  157.2840 C.ar    1  UNL1       -0.0036
     16 C         143.0001  136.9954  157.0286 C.ar    1  UNL1       -0.0025
     17 C         142.9473  136.0608  155.8564 C.ar    1  UNL1        0.0042
     18 C         141.7600  136.0738  154.9398 C.ar    1  UNL1        0.0536
     19 C         140.6256  137.0212  155.1952 C.ar    1  UNL1        0.0042
     20 C         140.6783  137.9558  156.3673 C.ar    1  UNL1       -0.0025
     21 C         141.7073  135.1392  153.7678 C.2     1  UNL1        0.2490
     22 O         141.9058  135.6673  152.3778 O.2     1  UNL1       -0.2699
     23 N         141.4560  133.6765  153.9855 N.am    1  UNL1       -0.2761
     24 C         141.4032  132.7419  152.8134 C.3     1  UNL1        0.0938
     25 C         140.4936  131.5496  152.8452 C.3     1  UNL1        0.0233
     26 C         141.2575  133.1484  155.3753 C.3     1  UNL1        0.0938
     27 C         142.3584  132.3874  156.0529 C.3     1  UNL1        0.0233
     28 N         141.1821  138.5396  159.7185 N.3     1  UNL1       -0.2644
     29 C         141.9331  138.0209  160.9088 C.3     1  UNL1        0.0901
     30 C         141.1969  137.6831  162.1712 C.3     1  UNL1        0.0900
     31 N         139.7096  137.8638  162.2433 N.3     1  UNL1       -0.2652
     32 C         138.9585  138.3825  161.0530 C.3     1  UNL1        0.0900
     33 C         139.6947  138.7204  159.7905 C.3     1  UNL1        0.0901
     34 C         138.9733  137.5259  163.5058 C.3     1  UNL1        0.1193
     35 C         139.0222  138.4627  164.6762 C.ar    1  UNL1        0.0823
     36 C         138.3363  138.2625  165.9951 C.ar    1  UNL1        0.0530
     37 S         138.6557  139.4403  166.8672 S.2     1  UNL1       -0.0643
     38 C         139.5391  140.3685  166.0873 C.ar    1  UNL1        0.1341
     39 N         139.7656  139.7643  164.7332 N.ar    1  UNL1       -0.2392
@<TRIPOS>BOND
     1    13    14    1
     2    14    12    1
     3    12     8    1
     4     8     9    2
     5     8    10   am
     6    10     2    1
     7     2     3   ar
     8     3     4   ar
     9     4     5   ar
    10     5     6   ar
    11     6     1    1
    12     1    15    1
    13    15    16   ar
    14    16    17   ar
    15    17    18   ar
    16    18    21    1
    17    21    22    2
    18    21    23   am
    19    23    24    1
    20    24    25    1
    21    23    26    1
    22    26    27    1
    23    18    19   ar
    24    19    20   ar
    25     1    28    1
    26    28    29    1
    27    29    30    1
    28    30    31    1
    29    31    34    1
    30    34    35    1
    31    35    36   ar
    32    36    37   ar
    33    37    38   ar
    34    38    39   ar
    35    31    32    1
    36    32    33    1
    37     6     7   ar
    38     7     2   ar
    39    20    15   ar
    40    33    28    1
    41    39    35   ar
    42    10    11    1
@<TRIPOS>MOLECULE
*****
 39 42 0 0 0
SMALL
GASTEIGER

@<TRIPOS>ATOM
      1 C         141.9828  138.7020  158.7880 C.3     1  UNL1        0.1031
      2 C         143.7234  142.2407  159.2326 C.ar    1  UNL1        0.0529
      3 C         144.6127  142.2729  158.0251 C.ar    1  UNL1        0.0147
      4 C         144.6254  141.1148  157.0719 C.ar    1  UNL1        0.0010
      5 C         143.7488  139.9245  157.3261 C.ar    1  UNL1       -0.0026
      6 C         142.8595  139.8923  158.5336 C.ar    1  UNL1       -0.0024
      7 C         142.8468  141.0505  159.4868 C.ar    1  UNL1        0.0121
      8 C         144.3947  143.2831  161.5157 C.2     1  UNL1        0.4054
      9 O         145.0913  142.0092  161.8925 O.2     1  UNL1       -0.2261
     10 N         143.7107  143.3989  160.1858 N.am    1  UNL1       -0.2499
     11 H         143.2535  144.2349  159.9385 H       1  UNL1        0.1582
     12 O         144.3820  144.4412  162.4689 O.3     1  UNL1       -0.4345
     13 C         142.6300  143.8411  164.2912 C.3     1  UNL1        0.0513
     14 C         143.1321  144.7735  163.2288 C.3     1  UNL1        0.2102
     15 C         141.2599  138.5687  160.0954 C.ar    1  UNL1       -0.0036
     16 C         141.9924  138.0845  161.3115 C.ar    1  UNL1       -0.0025
     17 C         141.2694  137.9512  162.6191 C.ar    1  UNL1        0.0042
     18 C         139.8139  138.3020  162.7104 C.ar    1  UNL1        0.0536
     19 C         139.0813  138.7862  161.4943 C.ar    1  UNL1        0.0042
     20 C         139.8043  138.9195  160.1868 C.ar    1  UNL1       -0.0025
     21 C         139.0910  138.1687  164.0179 C.2     1  UNL1        0.2490
     22 O         138.6064  136.8241  164.4733 O.2     1  UNL1       -0.2699
     23 N         138.8526  139.3799  164.8701 N.am    1  UNL1       -0.2761
     24 C         138.1296  139.2465  166.1776 C.3     1  UNL1        0.0938
     25 C         138.8642  139.4670  167.4667 C.3     1  UNL1        0.0233
     26 C         139.3371  140.7244  164.4147 C.3     1  UNL1        0.0938
     27 C         138.3691  141.7149  163.8385 C.3     1  UNL1        0.0233
     28 N         141.8291  137.6451  157.7348 N.3     1  UNL1       -0.2644
     29 C         140.6458  137.6709  156.8134 C.3     1  UNL1        0.0901
     30 C         140.4921  136.6139  155.7602 C.3     1  UNL1        0.0900
     31 N         141.5217  135.5311  155.6284 N.3     1  UNL1       -0.2652
     32 C         142.7051  135.5053  156.5498 C.3     1  UNL1        0.0900
     33 C         142.8588  136.5622  157.6030 C.3     1  UNL1        0.0901
     34 C         141.3680  134.4742  154.5752 C.3     1  UNL1        0.1193
     35 C         141.9292  133.1018  154.8023 C.ar    1  UNL1        0.0823
     36 C         142.8167  132.3450  153.8592 C.ar    1  UNL1        0.0530
     37 S         143.1375  131.0207  154.4865 S.2     1  UNL1       -0.0643
     38 C         142.4482  130.9592  155.8173 C.ar    1  UNL1        0.1341
     39 N         141.7015  132.2454  156.0125 N.ar    1  UNL1       -0.2392
@<TRIPOS>BOND
     1    13    14    1
     2    14    12    1
     3    12     8    1
     4     8     9    2
     5     8    10   am
     6    10     2    1
     7     2     3   ar
     8     3     4   ar
     9     4     5   ar
    10     5     6   ar
    11     6     1    1
    12     1    15    1
    13    15    16   ar
    14    16    17   ar
    15    17    18   ar
    16    18    21    1
    17    21    22    2
    18    21    23   am
    19    23    24    1
    20    24    25    1
    21    23    26    1
    22    26    27    1
    23    18    19   ar
    24    19    20   ar
    25     1    28    1
    26    28    29    1
    27    29    30    1
    28    30    31    1
    29    31    34    1
    30    34    35    1
    31    35    36   ar
    32    36    37   ar
    33    37    38   ar
    34    38    39   ar
    35    31    32    1
    36    32    33    1
    37     6     7   ar
    38     7     2   ar
    39    20    15   ar
    40    33    28    1
    41    39    35   ar
    42    10    11    1
@<TRIPOS>MOLECULE
*****
 39 42 0 0 0
SMALL
GASTEIGER

@<TRIPOS>ATOM
      1 C         138.8128  140.4090  157.0126 C.3     1  UNL1        0.1031
      2 C         135.2205  141.0775  155.4639 C.ar    1  UNL1        0.0529
      3 C         135.5484  141.1342  154.0013 C.ar    1  UNL1        0.0147
      4 C         136.9645  140.9492  153.5424 C.ar    1  UNL1        0.0010
      5 C         138.0526  140.7075  154.5462 C.ar    1  UNL1       -0.0026
      6 C         137.7247  140.6508  156.0087 C.ar    1  UNL1       -0.0024
      7 C         136.3086  140.8358  156.4676 C.ar    1  UNL1        0.0121
      8 C         133.0523  140.1095  156.5184 C.2     1  UNL1        0.4054
      9 O         133.7163  138.7714  156.6551 O.2     1  UNL1       -0.2261
     10 N         133.8044  141.2625  155.9227 N.am    1  UNL1       -0.2499
     11 H         133.3687  142.1408  155.8330 H       1  UNL1        0.1582
     12 O         131.6363  140.2945  156.9772 O.3     1  UNL1       -0.4345
     13 C         130.2415  138.1192  156.7071 C.3     1  UNL1        0.0513
     14 C         130.8897  139.1458  157.5881 C.3     1  UNL1        0.2102
     15 C         138.7983  141.1365  158.3242 C.ar    1  UNL1       -0.0036
     16 C         138.2085  140.4823  159.5383 C.ar    1  UNL1       -0.0025
     17 C         138.1940  141.2099  160.8500 C.ar    1  UNL1        0.0042
     18 C         138.7694  142.5916  160.9476 C.ar    1  UNL1        0.0536
     19 C         139.3592  143.2459  159.7335 C.ar    1  UNL1        0.0042
     20 C         139.3737  142.5184  158.4218 C.ar    1  UNL1       -0.0025
     21 C         138.7549  143.3192  162.2592 C.2     1  UNL1        0.2490
     22 O         137.6925  144.3406  162.5387 O.2     1  UNL1       -0.2699
     23 N         139.8028  143.0253  163.2915 N.am    1  UNL1       -0.2761
     24 C         139.7883  143.7529  164.6032 C.3     1  UNL1        0.0938
     25 C         140.3662  143.1052  165.8265 C.3     1  UNL1        0.0233
     26 C         140.8652  142.0039  163.0121 C.3     1  UNL1        0.0938
     27 C         142.2509  142.4446  162.6438 C.3     1  UNL1        0.0233
     28 N         139.9154  139.4398  156.7046 N.3     1  UNL1       -0.2644
     29 C         141.3211  139.9334  156.5307 C.3     1  UNL1        0.0901
     30 C         142.4237  138.9641  156.2228 C.3     1  UNL1        0.0900
     31 N         142.1206  137.5012  156.0888 N.3     1  UNL1       -0.2652
     32 C         140.7148  137.0075  156.2627 C.3     1  UNL1        0.0900
     33 C         139.6122  137.9768  156.5707 C.3     1  UNL1        0.0901
     34 C         143.2232  136.5320  155.7809 C.3     1  UNL1        0.1193
     35 C         143.0311  135.0683  156.0469 C.ar    1  UNL1        0.0823
     36 C         143.6638  134.2836  157.1577 C.ar    1  UNL1        0.0530
     37 S         143.1964  132.8627  157.0462 S.2     1  UNL1       -0.0643
     38 C         142.2748  132.7692  155.8663 C.ar    1  UNL1        0.1341
     39 N         142.1727  134.1324  155.2488 N.ar    1  UNL1       -0.2392
@<TRIPOS>BOND
     1    13    14    1
     2    14    12    1
     3    12     8    1
     4     8     9    2
     5     8    10   am
     6    10     2    1
     7     2     3   ar
     8     3     4   ar
     9     4     5   ar
    10     5     6   ar
    11     6     1    1
    12     1    15    1
    13    15    16   ar
    14    16    17   ar
    15    17    18   ar
    16    18    21    1
    17    21    22    2
    18    21    23   am
    19    23    24    1
    20    24    25    1
    21    23    26    1
    22    26    27    1
    23    18    19   ar
    24    19    20   ar
    25     1    28    1
    26    28    29    1
    27    29    30    1
    28    30    31    1
    29    31    34    1
    30    34    35    1
    31    35    36   ar
    32    36    37   ar
    33    37    38   ar
    34    38    39   ar
    35    31    32    1
    36    32    33    1
    37     6     7   ar
    38     7     2   ar
    39    20    15   ar
    40    33    28    1
    41    39    35   ar
    42    10    11    1
@<TRIPOS>MOLECULE
*****
 39 42 0 0 0
SMALL
GASTEIGER

@<TRIPOS>ATOM
      1 C         141.2301  139.0459  158.3529 C.3     1  UNL1        0.1031
      2 C         141.3849  142.9895  158.7696 C.ar    1  UNL1        0.0529
      3 C         141.0971  143.4344  157.3663 C.ar    1  UNL1        0.0147
      4 C         140.8536  142.4164  156.2919 C.ar    1  UNL1        0.0010
      5 C         140.8979  140.9536  156.6207 C.ar    1  UNL1       -0.0026
      6 C         141.1857  140.5087  158.0240 C.ar    1  UNL1       -0.0024
      7 C         141.4292  141.5267  159.0984 C.ar    1  UNL1        0.0121
      8 C         140.4892  144.4895  160.6926 C.2     1  UNL1        0.4054
      9 O         139.1065  143.9535  160.4667 O.2     1  UNL1       -0.2261
     10 N         141.6283  144.0075  159.8441 N.am    1  UNL1       -0.2499
     11 H         142.5358  144.3593  159.9923 H       1  UNL1        0.1582
     12 O         140.7327  145.5075  161.7670 O.3     1  UNL1       -0.4345
     13 C         142.4190  145.2079  163.7207 C.3     1  UNL1        0.0513
     14 C         141.0322  145.0624  163.1679 C.3     1  UNL1        0.2102
     15 C         141.3799  138.0346  157.2553 C.ar    1  UNL1       -0.0036
     16 C         140.1623  137.4427  156.6095 C.ar    1  UNL1       -0.0025
     17 C         140.3121  136.4314  155.5118 C.ar    1  UNL1        0.0042
     18 C         141.6795  136.0120  155.0600 C.ar    1  UNL1        0.0536
     19 C         142.8972  136.6038  155.7058 C.ar    1  UNL1        0.0042
     20 C         142.7474  137.6151  156.8034 C.ar    1  UNL1       -0.0025
     21 C         141.8293  135.0007  153.9624 C.2     1  UNL1        0.2490
     22 O         141.9384  135.4524  152.5361 O.2     1  UNL1       -0.2699
     23 N         141.8701  133.5377  154.2909 N.am    1  UNL1       -0.2761
     24 C         142.0199  132.5263  153.1932 C.3     1  UNL1        0.0938
     25 C         140.8406  131.7043  152.7648 C.3     1  UNL1        0.0233
     26 C         141.7611  133.0859  155.7171 C.3     1  UNL1        0.0938
     27 C         143.0020  132.8112  156.5138 C.3     1  UNL1        0.0233
     28 N         141.1246  138.5944  159.7794 N.3     1  UNL1       -0.2644
     29 C         139.7774  138.4504  160.4229 C.3     1  UNL1        0.0901
     30 C         139.6719  137.9989  161.8495 C.3     1  UNL1        0.0900
     31 N         140.9138  137.6914  162.6325 N.3     1  UNL1       -0.2652
     32 C         142.2611  137.8353  161.9891 C.3     1  UNL1        0.0900
     33 C         142.3666  138.2868  160.5625 C.3     1  UNL1        0.0901
     34 C         140.8083  137.2399  164.0591 C.3     1  UNL1        0.1193
     35 C         139.9946  138.0327  165.0385 C.ar    1  UNL1        0.0823
     36 C         138.5886  137.7306  165.4652 C.ar    1  UNL1        0.0530
     37 S         138.1690  138.7780  166.4536 S.2     1  UNL1       -0.0643
     38 C         139.3157  139.7274  166.6377 C.ar    1  UNL1        0.1341
     39 N         140.4439  139.2668  165.7631 N.ar    1  UNL1       -0.2392
@<TRIPOS>BOND
     1    13    14    1
     2    14    12    1
     3    12     8    1
     4     8     9    2
     5     8    10   am
     6    10     2    1
     7     2     3   ar
     8     3     4   ar
     9     4     5   ar
    10     5     6   ar
    11     6     1    1
    12     1    15    1
    13    15    16   ar
    14    16    17   ar
    15    17    18   ar
    16    18    21    1
    17    21    22    2
    18    21    23   am
    19    23    24    1
    20    24    25    1
    21    23    26    1
    22    26    27    1
    23    18    19   ar
    24    19    20   ar
    25     1    28    1
    26    28    29    1
    27    29    30    1
    28    30    31    1
    29    31    34    1
    30    34    35    1
    31    35    36   ar
    32    36    37   ar
    33    37    38   ar
    34    38    39   ar
    35    31    32    1
    36    32    33    1
    37     6     7   ar
    38     7     2   ar
    39    20    15   ar
    40    33    28    1
    41    39    35   ar
    42    10    11    1
@<TRIPOS>MOLECULE
*****
 39 42 0 0 0
SMALL
GASTEIGER

@<TRIPOS>ATOM
      1 C         140.8508  139.4684  157.6539 C.3     1  UNL1        0.1031
      2 C         143.1126  136.3370  156.7438 C.ar    1  UNL1        0.0529
      3 C         144.0056  136.9280  155.6935 C.ar    1  UNL1        0.0147
      4 C         143.8470  138.3658  155.2966 C.ar    1  UNL1        0.0010
      5 C         142.7954  139.2126  155.9500 C.ar    1  UNL1       -0.0026
      6 C         141.9024  138.6216  157.0004 C.ar    1  UNL1       -0.0024
      7 C         142.0610  137.1838  157.3973 C.ar    1  UNL1        0.0121
      8 C         142.4339  133.8427  156.4829 C.2     1  UNL1        0.4054
      9 O         141.4379  134.2241  155.4280 O.2     1  UNL1       -0.2261
     10 N         143.2713  134.8991  157.1407 N.am    1  UNL1       -0.2499
     11 H         143.9250  134.6488  157.8330 H       1  UNL1        0.1582
     12 O         142.5926  132.4049  156.8798 O.3     1  UNL1       -0.4345
     13 C         144.3912  130.7106  157.6826 C.3     1  UNL1        0.0513
     14 C         143.9067  131.7110  156.6754 C.3     1  UNL1        0.2102
     15 C         141.1175  140.0978  158.9890 C.ar    1  UNL1       -0.0036
     16 C         140.7240  139.3825  160.2474 C.ar    1  UNL1       -0.0025
     17 C         140.9908  140.0120  161.5826 C.ar    1  UNL1        0.0042
     18 C         141.6509  141.3567  161.6593 C.ar    1  UNL1        0.0536
     19 C         142.0443  142.0720  160.4009 C.ar    1  UNL1        0.0042
     20 C         141.7776  141.4426  159.0658 C.ar    1  UNL1       -0.0025
     21 C         141.9176  141.9861  162.9945 C.2     1  UNL1        0.2490
     22 O         140.9112  142.9209  163.5975 O.2     1  UNL1       -0.2699
     23 N         143.1906  141.6808  163.7267 N.am    1  UNL1       -0.2761
     24 C         143.4573  142.3103  165.0620 C.3     1  UNL1        0.0938
     25 C         144.5370  143.3420  165.2025 C.3     1  UNL1        0.0233
     26 C         144.1970  140.7461  163.1238 C.3     1  UNL1        0.0938
     27 C         144.8004  139.6546  163.9572 C.3     1  UNL1        0.0233
     28 N         139.5324  139.6857  156.9721 N.3     1  UNL1       -0.2644
     29 C         138.5262  140.6254  157.5674 C.3     1  UNL1        0.0901
     30 C         137.2078  140.8428  156.8857 C.3     1  UNL1        0.0900
     31 N         136.8957  140.1204  155.6087 N.3     1  UNL1       -0.2652
     32 C         137.9020  139.1807  155.0133 C.3     1  UNL1        0.0900
     33 C         139.2203  138.9633  155.6951 C.3     1  UNL1        0.0901
     34 C         135.5774  140.3378  154.9270 C.3     1  UNL1        0.1193
     35 C         134.2995  140.0345  155.6514 C.ar    1  UNL1        0.0823
     36 C         133.0961  140.9267  155.7278 C.ar    1  UNL1        0.0530
     37 S         132.0534  140.2294  156.5502 S.2     1  UNL1       -0.0643
     38 C         132.6123  138.9061  156.9821 C.ar    1  UNL1        0.1341
     39 N         134.0005  138.7857  156.4266 N.ar    1  UNL1       -0.2392
@<TRIPOS>BOND
     1    13    14    1
     2    14    12    1
     3    12     8    1
     4     8     9    2
     5     8    10   am
     6    10     2    1
     7     2     3   ar
     8     3     4   ar
     9     4     5   ar
    10     5     6   ar
    11     6     1    1
    12     1    15    1
    13    15    16   ar
    14    16    17   ar
    15    17    18   ar
    16    18    21    1
    17    21    22    2
    18    21    23   am
    19    23    24    1
    20    24    25    1
    21    23    26    1
    22    26    27    1
    23    18    19   ar
    24    19    20   ar
    25     1    28    1
    26    28    29    1
    27    29    30    1
    28    30    31    1
    29    31    34    1
    30    34    35    1
    31    35    36   ar
    32    36    37   ar
    33    37    38   ar
    34    38    39   ar
    35    31    32    1
    36    32    33    1
    37     6     7   ar
    38     7     2   ar
    39    20    15   ar
    40    33    28    1
    41    39    35   ar
    42    10    11    1
