@<TRIPOS>MOLECULE
*****
 32 34 0 0 0
SMALL
GASTEIGER

@<TRIPOS>ATOM
      1 C         138.6768  140.1406  160.4047 C.2     1  UNL1        0.2521
      2 O         137.2999  139.7725  159.9369 O.2     1  UNL1       -0.2698
      3 N         138.9329  140.3869  161.8620 N.am    1  UNL1       -0.2725
      4 C         140.3098  140.7550  162.3297 C.3     1  UNL1        0.1151
      5 C         140.5660  141.0013  163.7870 C.3     1  UNL1        0.1124
      6 N         139.4452  140.8794  164.7766 N.pl3   1  UNL1       -0.3023
      7 C         138.0684  140.5114  164.3088 C.3     1  UNL1        0.1124
      8 C         137.8122  140.2651  162.8515 C.3     1  UNL1        0.1151
      9 C         139.7014  141.1257  166.2339 C.ar    1  UNL1        0.0758
     10 C         139.4318  140.0428  167.2362 C.ar    1  UNL1        0.0175
     11 C         139.6880  140.2891  168.6935 C.ar    1  UNL1        0.0117
     12 C         140.2137  141.6183  169.1485 C.ar    1  UNL1        0.0708
     13 C         140.4832  142.7012  168.1461 C.ar    1  UNL1        0.0412
     14 C         140.2270  142.4549  166.6888 C.ar    1  UNL1        0.1540
     15 F         140.4965  143.5378  165.6864 F       1  UNL1       -0.2028
     16 C         140.4698  141.8646  170.6058 C.1     1  UNL1        0.1005
     17 N         140.7260  142.1109  172.0631 N.1     1  UNL1       -0.1908
     18 C         140.2535  141.6174  158.9614 C.ar    1  UNL1        0.1429
     19 C         141.3742  141.7392  157.9719 C.ar    1  UNL1        0.0384
     20 C         142.0389  140.5059  157.4361 C.ar    1  UNL1        0.0215
     21 C         141.5829  139.1508  157.8898 C.ar    1  UNL1        0.1061
     22 C         140.4622  139.0291  158.8793 C.ar    1  UNL1        0.0259
     23 C         139.7975  140.2624  159.4151 C.ar    1  UNL1        0.0887
     24 S         142.2477  137.9175  157.3540 S.O2    1  UNL1        0.0105
     25 C         142.9124  136.6842  156.8181 C.3     1  UNL1        0.1816
     26 O         143.5913  138.5503  157.5642 O.2     1  UNL1       -0.1686
     27 O         140.9040  137.2847  157.1437 O.2     1  UNL1       -0.1686
     28 O         139.5888  142.8507  159.4972 O.3     1  UNL1       -0.4753
     29 C         140.3755  143.8317  160.3150 C.3     1  UNL1        0.2053
     30 C         140.1223  145.9992  161.7249 C.3     1  UNL1        0.0038
     31 C         139.7079  144.5892  161.4243 C.3     1  UNL1        0.0438
     32 C         138.6261  143.9368  162.2329 C.3     1  UNL1        0.0038
@<TRIPOS>BOND
     1    30    31    1
     2    31    32    1
     3    31    29    1
     4    29    28    1
     5    28    18    1
     6    18    19   ar
     7    19    20   ar
     8    20    21   ar
     9    21    24    1
    10    24    25    1
    11    24    26    2
    12    24    27    2
    13    21    22   ar
    14    22    23   ar
    15    23     1    1
    16     1     2    2
    17     1     3   am
    18     3     4    1
    19     4     5    1
    20     5     6    1
    21     6     9    1
    22     9    10   ar
    23    10    11   ar
    24    11    12   ar
    25    12    16    1
    26    16    17    3
    27    12    13   ar
    28    13    14   ar
    29    14    15    1
    30     6     7    1
    31     7     8    1
    32    23    18   ar
    33     8     3    1
    34    14     9   ar
@<TRIPOS>MOLECULE
*****
 32 34 0 0 0
SMALL
GASTEIGER

@<TRIPOS>ATOM
      1 C         139.1845  142.2027  164.6679 C.2     1  UNL1        0.2521
      2 O         137.9096  142.9808  164.5302 O.2     1  UNL1       -0.2698
      3 N         140.1006  142.0494  163.4901 N.am    1  UNL1       -0.2725
      4 C         141.3757  141.2713  163.6279 C.3     1  UNL1        0.1151
      5 C         142.2917  141.1180  162.4500 C.3     1  UNL1        0.1124
      6 N         141.9328  141.7429  161.1344 N.pl3   1  UNL1       -0.3023
      7 C         140.6579  142.5210  160.9967 C.3     1  UNL1        0.1124
      8 C         139.7418  142.6742  162.1745 C.3     1  UNL1        0.1151
      9 C         142.8489  141.5896  159.9566 C.ar    1  UNL1        0.0758
     10 C         143.8143  142.6841  159.6099 C.ar    1  UNL1        0.0175
     11 C         144.7304  142.5308  158.4320 C.ar    1  UNL1        0.0117
     12 C         144.6811  141.2831  157.6009 C.ar    1  UNL1        0.0708
     13 C         143.7157  140.1886  157.9477 C.ar    1  UNL1        0.0412
     14 C         142.7996  140.3419  159.1255 C.ar    1  UNL1        0.1540
     15 F         141.8343  139.2474  159.4722 F       1  UNL1       -0.2028
     16 C         145.5972  141.1298  156.4231 C.1     1  UNL1        0.1005
     17 N         146.5133  140.9765  155.2453 N.1     1  UNL1       -0.1908
     18 C         139.0810  140.1875  166.3045 C.ar    1  UNL1        0.1429
     19 C         139.4399  139.5627  167.6201 C.ar    1  UNL1        0.0384
     20 C         140.2613  140.3282  168.6147 C.ar    1  UNL1        0.0215
     21 C         140.7238  141.7185  168.2937 C.ar    1  UNL1        0.1061
     22 C         140.3649  142.3433  166.9781 C.ar    1  UNL1        0.0259
     23 C         139.5435  141.5778  165.9835 C.ar    1  UNL1        0.0887
     24 S         141.5453  142.4841  169.2883 S.O2    1  UNL1        0.0105
     25 C         142.3667  143.2496  170.2829 C.3     1  UNL1        0.1816
     26 O         142.5956  141.4140  169.2444 O.2     1  UNL1       -0.1686
     27 O         140.4950  143.5541  169.3321 O.2     1  UNL1       -0.1686
     28 O         138.2595  139.4220  165.3099 O.3     1  UNL1       -0.4753
     29 C         138.6740  138.0399  164.9003 C.3     1  UNL1        0.2053
     30 C         139.7575  137.9864  162.5395 C.3     1  UNL1        0.0038
     31 C         139.8788  137.8457  164.0280 C.3     1  UNL1        0.0438
     32 C         141.2048  137.5110  164.6441 C.3     1  UNL1        0.0038
@<TRIPOS>BOND
     1    30    31    1
     2    31    32    1
     3    31    29    1
     4    29    28    1
     5    28    18    1
     6    18    19   ar
     7    19    20   ar
     8    20    21   ar
     9    21    24    1
    10    24    25    1
    11    24    26    2
    12    24    27    2
    13    21    22   ar
    14    22    23   ar
    15    23     1    1
    16     1     2    2
    17     1     3   am
    18     3     4    1
    19     4     5    1
    20     5     6    1
    21     6     9    1
    22     9    10   ar
    23    10    11   ar
    24    11    12   ar
    25    12    16    1
    26    16    17    3
    27    12    13   ar
    28    13    14   ar
    29    14    15    1
    30     6     7    1
    31     7     8    1
    32    23    18   ar
    33     8     3    1
    34    14     9   ar
@<TRIPOS>MOLECULE
*****
 32 34 0 0 0
SMALL
GASTEIGER

@<TRIPOS>ATOM
      1 C         139.8674  143.9378  164.5906 C.2     1  UNL1        0.2521
      2 O         139.2386  145.0180  165.4198 O.2     1  UNL1       -0.2698
      3 N         140.0735  144.1457  163.1194 N.am    1  UNL1       -0.2725
      4 C         140.7024  143.0654  162.2902 C.3     1  UNL1        0.1151
      5 C         140.9085  143.2733  160.8190 C.3     1  UNL1        0.1124
      6 N         140.4857  144.5614  160.1771 N.pl3   1  UNL1       -0.3023
      7 C         139.8569  145.6416  161.0064 C.3     1  UNL1        0.1124
      8 C         139.6508  145.4337  162.4775 C.3     1  UNL1        0.1151
      9 C         140.6918  144.7693  158.7060 C.ar    1  UNL1        0.0758
     10 C         141.7970  145.6607  158.2220 C.ar    1  UNL1        0.0175
     11 C         142.0031  145.8686  156.7509 C.ar    1  UNL1        0.0117
     12 C         141.1040  145.1851  155.7636 C.ar    1  UNL1        0.0708
     13 C         139.9989  144.2937  156.2476 C.ar    1  UNL1        0.0412
     14 C         139.7928  144.0859  157.7187 C.ar    1  UNL1        0.1540
     15 F         138.6876  143.1945  158.2027 F       1  UNL1       -0.2028
     16 C         141.3101  145.3930  154.2925 C.1     1  UNL1        0.1005
     17 N         141.5162  145.6008  152.8213 N.1     1  UNL1       -0.1908
     18 C         141.7390  142.4000  165.5300 C.ar    1  UNL1        0.1429
     19 C         142.1617  141.1119  166.1719 C.ar    1  UNL1        0.0384
     20 C         141.1356  140.0734  166.5162 C.ar    1  UNL1        0.0215
     21 C         139.6868  140.3230  166.2188 C.ar    1  UNL1        0.1061
     22 C         139.2640  141.6111  165.5769 C.ar    1  UNL1        0.0259
     23 C         140.2902  142.6496  165.2325 C.ar    1  UNL1        0.0887
     24 S         138.6606  139.2845  166.5632 S.O2    1  UNL1        0.0105
     25 C         137.6345  138.2460  166.9076 C.3     1  UNL1        0.1816
     26 O         138.3201  139.1390  165.1096 O.2     1  UNL1       -0.1686
     27 O         139.0012  139.4301  168.0167 O.2     1  UNL1       -0.1686
     28 O         142.7651  143.4385  165.1856 O.3     1  UNL1       -0.4753
     29 C         144.2150  143.0625  165.1052 C.3     1  UNL1        0.2053
     30 C         144.5632  143.1211  162.5312 C.3     1  UNL1        0.0038
     31 C         144.7604  142.4411  163.8536 C.3     1  UNL1        0.0438
     32 C         145.5029  141.1397  163.9244 C.3     1  UNL1        0.0038
@<TRIPOS>BOND
     1    30    31    1
     2    31    32    1
     3    31    29    1
     4    29    28    1
     5    28    18    1
     6    18    19   ar
     7    19    20   ar
     8    20    21   ar
     9    21    24    1
    10    24    25    1
    11    24    26    2
    12    24    27    2
    13    21    22   ar
    14    22    23   ar
    15    23     1    1
    16     1     2    2
    17     1     3   am
    18     3     4    1
    19     4     5    1
    20     5     6    1
    21     6     9    1
    22     9    10   ar
    23    10    11   ar
    24    11    12   ar
    25    12    16    1
    26    16    17    3
    27    12    13   ar
    28    13    14   ar
    29    14    15    1
    30     6     7    1
    31     7     8    1
    32    23    18   ar
    33     8     3    1
    34    14     9   ar
@<TRIPOS>MOLECULE
*****
 32 34 0 0 0
SMALL
GASTEIGER

@<TRIPOS>ATOM
      1 C         141.8317  139.7152  165.1890 C.2     1  UNL1        0.2521
      2 O         142.6292  138.4541  165.0358 O.2     1  UNL1       -0.2698
      3 N         141.5660  140.5842  163.9956 N.am    1  UNL1       -0.2725
      4 C         140.7684  141.8454  164.1489 C.3     1  UNL1        0.1151
      5 C         140.5028  142.7144  162.9555 C.3     1  UNL1        0.1124
      6 N         141.0347  142.3223  161.6089 N.pl3   1  UNL1       -0.3023
      7 C         141.8323  141.0612  161.4557 C.3     1  UNL1        0.1124
      8 C         142.0979  140.1922  162.6490 C.3     1  UNL1        0.1151
      9 C         140.7691  143.1914  160.4155 C.ar    1  UNL1        0.0758
     10 C         139.9342  142.6739  159.2817 C.ar    1  UNL1        0.0175
     11 C         139.6686  143.5429  158.0884 C.ar    1  UNL1        0.0117
     12 C         140.2378  144.9295  158.0287 C.ar    1  UNL1        0.0708
     13 C         141.0726  145.4470  159.1624 C.ar    1  UNL1        0.0412
     14 C         141.3383  144.5779  160.3558 C.ar    1  UNL1        0.1540
     15 F         142.1731  145.0954  161.4895 F       1  UNL1       -0.2028
     16 C         139.9722  145.7986  156.8353 C.1     1  UNL1        0.1005
     17 N         139.7065  146.6676  155.6419 N.1     1  UNL1       -0.1908
     18 C         139.9506  139.6241  166.9789 C.ar    1  UNL1        0.1429
     19 C         139.4188  140.0162  168.3255 C.ar    1  UNL1        0.0384
     20 C         140.2360  140.8915  169.2288 C.ar    1  UNL1        0.0215
     21 C         141.5850  141.3746  168.7856 C.ar    1  UNL1        0.1061
     22 C         142.1169  140.9825  167.4390 C.ar    1  UNL1        0.0259
     23 C         141.2997  140.1073  166.5357 C.ar    1  UNL1        0.0887
     24 S         142.4022  142.2499  169.6890 S.O2    1  UNL1        0.0105
     25 C         143.2194  143.1252  170.5923 C.3     1  UNL1        0.1816
     26 O         143.2188  142.7002  168.5140 O.2     1  UNL1       -0.1686
     27 O         141.5857  141.7996  170.8639 O.2     1  UNL1       -0.1686
     28 O         139.1334  138.7488  166.0755 O.3     1  UNL1       -0.4753
     29 C         138.2579  139.3651  165.0251 C.3     1  UNL1        0.2053
     30 C         139.1843  137.7677  163.1975 C.3     1  UNL1        0.0038
     31 C         138.4750  139.0334  163.5784 C.3     1  UNL1        0.0438
     32 C         137.9830  139.9673  162.5127 C.3     1  UNL1        0.0038
@<TRIPOS>BOND
     1    30    31    1
     2    31    32    1
     3    31    29    1
     4    29    28    1
     5    28    18    1
     6    18    19   ar
     7    19    20   ar
     8    20    21   ar
     9    21    24    1
    10    24    25    1
    11    24    26    2
    12    24    27    2
    13    21    22   ar
    14    22    23   ar
    15    23     1    1
    16     1     2    2
    17     1     3   am
    18     3     4    1
    19     4     5    1
    20     5     6    1
    21     6     9    1
    22     9    10   ar
    23    10    11   ar
    24    11    12   ar
    25    12    16    1
    26    16    17    3
    27    12    13   ar
    28    13    14   ar
    29    14    15    1
    30     6     7    1
    31     7     8    1
    32    23    18   ar
    33     8     3    1
    34    14     9   ar
@<TRIPOS>MOLECULE
*****
 32 34 0 0 0
SMALL
GASTEIGER

@<TRIPOS>ATOM
      1 C         141.6851  139.5799  163.8562 C.2     1  UNL1        0.2521
      2 O         142.9478  138.7726  163.9167 O.2     1  UNL1       -0.2698
      3 N         141.4729  140.5577  162.7386 N.am    1  UNL1       -0.2725
      4 C         140.2101  141.3651  162.6781 C.3     1  UNL1        0.1151
      5 C         139.9980  142.3428  161.5605 C.3     1  UNL1        0.1124
      6 N         141.0486  142.5133  160.5035 N.pl3   1  UNL1       -0.3023
      7 C         142.3113  141.7059  160.5641 C.3     1  UNL1        0.1124
      8 C         142.5235  140.7281  161.6816 C.3     1  UNL1        0.1151
      9 C         140.8364  143.4910  159.3860 C.ar    1  UNL1        0.0758
     10 C         141.5952  144.7849  159.3673 C.ar    1  UNL1        0.0175
     11 C         141.3830  145.7627  158.2497 C.ar    1  UNL1        0.0117
     12 C         140.4120  145.4466  157.1509 C.ar    1  UNL1        0.0708
     13 C         139.6533  144.1528  157.1696 C.ar    1  UNL1        0.0412
     14 C         139.8655  143.1750  158.2871 C.ar    1  UNL1        0.1540
     15 F         139.1067  141.8812  158.3058 F       1  UNL1       -0.2028
     16 C         140.1998  146.4244  156.0333 C.1     1  UNL1        0.1005
     17 N         139.9877  147.4022  154.9158 N.1     1  UNL1       -0.1908
     18 C         139.4761  138.4863  164.6773 C.ar    1  UNL1        0.1429
     19 C         138.4255  138.3160  165.7343 C.ar    1  UNL1        0.0384
     20 C         138.5334  139.0687  167.0272 C.ar    1  UNL1        0.0215
     21 C         139.6919  139.9919  167.2631 C.ar    1  UNL1        0.1061
     22 C         140.7424  140.1623  166.2061 C.ar    1  UNL1        0.0259
     23 C         140.6345  139.4095  164.9132 C.ar    1  UNL1        0.0887
     24 S         139.7998  140.7447  168.5561 S.O2    1  UNL1        0.0105
     25 C         139.9077  141.4974  169.8490 C.3     1  UNL1        0.1816
     26 O         140.5168  141.8564  167.8490 O.2     1  UNL1       -0.1686
     27 O         139.0828  139.6329  169.2632 O.2     1  UNL1       -0.1686
     28 O         139.3681  137.7336  163.3843 O.3     1  UNL1       -0.4753
     29 C         138.2253  138.0051  162.4515 C.3     1  UNL1        0.2053
     30 C         137.4621  139.6900  160.6270 C.3     1  UNL1        0.0038
     31 C         138.4704  138.7106  161.1506 C.3     1  UNL1        0.0438
     32 C         139.7236  138.4366  160.3733 C.3     1  UNL1        0.0038
@<TRIPOS>BOND
     1    30    31    1
     2    31    32    1
     3    31    29    1
     4    29    28    1
     5    28    18    1
     6    18    19   ar
     7    19    20   ar
     8    20    21   ar
     9    21    24    1
    10    24    25    1
    11    24    26    2
    12    24    27    2
    13    21    22   ar
    14    22    23   ar
    15    23     1    1
    16     1     2    2
    17     1     3   am
    18     3     4    1
    19     4     5    1
    20     5     6    1
    21     6     9    1
    22     9    10   ar
    23    10    11   ar
    24    11    12   ar
    25    12    16    1
    26    16    17    3
    27    12    13   ar
    28    13    14   ar
    29    14    15    1
    30     6     7    1
    31     7     8    1
    32    23    18   ar
    33     8     3    1
    34    14     9   ar
@<TRIPOS>MOLECULE
*****
 32 34 0 0 0
SMALL
GASTEIGER

@<TRIPOS>ATOM
      1 C         140.1559  141.7557  159.9128 C.2     1  UNL1        0.2521
      2 O         139.1129  142.5838  159.2227 O.2     1  UNL1       -0.2698
      3 N         140.1961  141.6964  161.4111 N.am    1  UNL1       -0.2725
      4 C         141.2392  140.8682  162.1012 C.3     1  UNL1        0.1151
      5 C         141.2793  140.8089  163.5995 C.3     1  UNL1        0.1124
      6 N         140.2764  141.5777  164.4077 N.pl3   1  UNL1       -0.3023
      7 C         139.2333  142.4058  163.7176 C.3     1  UNL1        0.1124
      8 C         139.1932  142.4651  162.2193 C.3     1  UNL1        0.1151
      9 C         140.3165  141.5183  165.9060 C.ar    1  UNL1        0.0758
     10 C         141.0760  142.5566  166.6776 C.ar    1  UNL1        0.0175
     11 C         141.1161  142.4972  168.1759 C.ar    1  UNL1        0.0117
     12 C         140.3968  141.3996  168.9026 C.ar    1  UNL1        0.0708
     13 C         139.6374  140.3615  168.1309 C.ar    1  UNL1        0.0412
     14 C         139.5972  140.4208  166.6326 C.ar    1  UNL1        0.1540
     15 F         138.8378  139.3826  165.8610 F       1  UNL1       -0.2028
     16 C         140.4369  141.3403  170.4009 C.1     1  UNL1        0.1005
     17 N         140.4771  141.2809  171.8991 N.1     1  UNL1       -0.1908
     18 C         140.8856  139.5603  158.7306 C.ar    1  UNL1        0.1429
     19 C         141.8886  138.7916  157.9224 C.ar    1  UNL1        0.0384
     20 C         143.1648  139.4495  157.4884 C.ar    1  UNL1        0.0215
     21 C         143.4381  140.8761  157.8625 C.ar    1  UNL1        0.1061
     22 C         142.4351  141.6448  158.6706 C.ar    1  UNL1        0.0259
     23 C         141.1589  140.9869  159.1047 C.ar    1  UNL1        0.0887
     24 S         144.7143  141.5340  157.4284 S.O2    1  UNL1        0.0105
     25 C         145.9905  142.1920  156.9944 C.3     1  UNL1        0.1816
     26 O         144.2655  142.8196  158.0576 O.2     1  UNL1       -0.1686
     27 O         145.1631  140.2484  156.7993 O.2     1  UNL1       -0.1686
     28 O         139.6094  138.9024  159.1646 O.3     1  UNL1       -0.4753
     29 C         139.5831  138.0636  160.4079 C.3     1  UNL1        0.2053
     30 C         137.4689  139.3174  161.2494 C.3     1  UNL1        0.0038
     31 C         138.6123  138.3812  161.5064 C.3     1  UNL1        0.0438
     32 C         138.7849  137.7625  162.8619 C.3     1  UNL1        0.0038
@<TRIPOS>BOND
     1    30    31    1
     2    31    32    1
     3    31    29    1
     4    29    28    1
     5    28    18    1
     6    18    19   ar
     7    19    20   ar
     8    20    21   ar
     9    21    24    1
    10    24    25    1
    11    24    26    2
    12    24    27    2
    13    21    22   ar
    14    22    23   ar
    15    23     1    1
    16     1     2    2
    17     1     3   am
    18     3     4    1
    19     4     5    1
    20     5     6    1
    21     6     9    1
    22     9    10   ar
    23    10    11   ar
    24    11    12   ar
    25    12    16    1
    26    16    17    3
    27    12    13   ar
    28    13    14   ar
    29    14    15    1
    30     6     7    1
    31     7     8    1
    32    23    18   ar
    33     8     3    1
    34    14     9   ar
@<TRIPOS>MOLECULE
*****
 32 34 0 0 0
SMALL
GASTEIGER

@<TRIPOS>ATOM
      1 C         139.0108  139.5428  165.5938 C.2     1  UNL1        0.2521
      2 O         137.7668  138.8819  166.1092 O.2     1  UNL1       -0.2698
      3 N         139.4776  139.2746  164.1937 N.am    1  UNL1       -0.2725
      4 C         140.7216  139.9356  163.6783 C.3     1  UNL1        0.1151
      5 C         141.1884  139.6673  162.2783 C.3     1  UNL1        0.1124
      6 N         140.4112  138.7381  161.3936 N.pl3   1  UNL1       -0.3023
      7 C         139.1672  138.0772  161.9090 C.3     1  UNL1        0.1124
      8 C         138.7004  138.3454  163.3091 C.3     1  UNL1        0.1151
      9 C         140.8780  138.4699  159.9936 C.ar    1  UNL1        0.0758
     10 C         139.9621  138.7312  158.8346 C.ar    1  UNL1        0.0175
     11 C         140.4289  138.4630  157.4346 C.ar    1  UNL1        0.0117
     12 C         141.8115  137.9334  157.1935 C.ar    1  UNL1        0.0708
     13 C         142.7273  137.6721  158.3524 C.ar    1  UNL1        0.0412
     14 C         142.2605  137.9403  159.7524 C.ar    1  UNL1        0.1540
     15 F         143.1763  137.6790  160.9114 F       1  UNL1       -0.2028
     16 C         142.2783  137.6651  155.7934 C.1     1  UNL1        0.1005
     17 N         142.7451  137.3969  154.3933 N.1     1  UNL1       -0.1908
     18 C         139.7128  141.9541  166.2595 C.ar    1  UNL1        0.1429
     19 C         140.4900  142.8832  167.1441 C.ar    1  UNL1        0.0384
     20 C         141.3424  142.3303  168.2477 C.ar    1  UNL1        0.0215
     21 C         141.4176  140.8483  168.4666 C.ar    1  UNL1        0.1061
     22 C         140.6404  139.9192  167.5819 C.ar    1  UNL1        0.0259
     23 C         139.7880  140.4721  166.4784 C.ar    1  UNL1        0.0887
     24 S         142.2700  140.2955  169.5701 S.O2    1  UNL1        0.0105
     25 C         143.1224  139.7426  170.6736 C.3     1  UNL1        0.1816
     26 O         142.8837  139.3217  168.6082 O.2     1  UNL1       -0.1686
     27 O         141.6564  141.2692  170.5320 O.2     1  UNL1       -0.1686
     28 O         138.8604  142.5069  165.1560 O.3     1  UNL1       -0.4753
     29 C         138.7926  143.9884  164.9311 C.3     1  UNL1        0.2053
     30 C         138.9703  145.1127  162.5956 C.3     1  UNL1        0.0038
     31 C         139.6225  144.6223  163.8543 C.3     1  UNL1        0.0438
     32 C         141.1045  144.7658  164.0361 C.3     1  UNL1        0.0038
@<TRIPOS>BOND
     1    30    31    1
     2    31    32    1
     3    31    29    1
     4    29    28    1
     5    28    18    1
     6    18    19   ar
     7    19    20   ar
     8    20    21   ar
     9    21    24    1
    10    24    25    1
    11    24    26    2
    12    24    27    2
    13    21    22   ar
    14    22    23   ar
    15    23     1    1
    16     1     2    2
    17     1     3   am
    18     3     4    1
    19     4     5    1
    20     5     6    1
    21     6     9    1
    22     9    10   ar
    23    10    11   ar
    24    11    12   ar
    25    12    16    1
    26    16    17    3
    27    12    13   ar
    28    13    14   ar
    29    14    15    1
    30     6     7    1
    31     7     8    1
    32    23    18   ar
    33     8     3    1
    34    14     9   ar
@<TRIPOS>MOLECULE
*****
 32 34 0 0 0
SMALL
GASTEIGER

@<TRIPOS>ATOM
      1 C         141.6836  143.2017  159.8712 C.2     1  UNL1        0.2521
      2 O         142.2376  144.4375  159.2265 O.2     1  UNL1       -0.2698
      3 N         141.6768  143.0741  161.3658 N.am    1  UNL1       -0.2725
      4 C         141.1227  141.8382  162.0105 C.3     1  UNL1        0.1151
      5 C         141.1159  141.7107  163.5051 C.3     1  UNL1        0.1124
      6 N         141.6632  142.8190  164.3549 N.pl3   1  UNL1       -0.3023
      7 C         142.2172  144.0548  163.7102 C.3     1  UNL1        0.1124
      8 C         142.2240  144.1824  162.2156 C.3     1  UNL1        0.1151
      9 C         141.6564  142.6914  165.8494 C.ar    1  UNL1        0.0758
     10 C         140.3908  142.9344  166.6172 C.ar    1  UNL1        0.0175
     11 C         140.3840  142.8068  168.1117 C.ar    1  UNL1        0.0117
     12 C         141.6428  142.4363  168.8385 C.ar    1  UNL1        0.0708
     13 C         142.9083  142.1934  168.0708 C.ar    1  UNL1        0.0412
     14 C         142.9151  142.3209  166.5763 C.ar    1  UNL1        0.1540
     15 F         144.1807  142.0780  165.8086 F       1  UNL1       -0.2028
     16 C         141.6361  142.3087  170.3331 C.1     1  UNL1        0.1005
     17 N         141.6293  142.1812  171.8276 N.1     1  UNL1       -0.1908
     18 C         141.9834  140.8935  158.7170 C.ar    1  UNL1        0.1429
     19 C         141.4361  139.7852  157.8672 C.ar    1  UNL1        0.0384
     20 C         140.0417  139.8768  157.3219 C.ar    1  UNL1        0.0215
     21 C         139.1947  141.0767  157.6263 C.ar    1  UNL1        0.1061
     22 C         139.7420  142.1850  158.4760 C.ar    1  UNL1        0.0259
     23 C         141.1363  142.0934  159.0214 C.ar    1  UNL1        0.0887
     24 S         137.8004  141.1684  157.0809 S.O2    1  UNL1        0.0105
     25 C         136.4060  141.2600  156.5355 C.3     1  UNL1        0.1816
     26 O         137.9287  139.7831  156.5200 O.2     1  UNL1       -0.1686
     27 O         137.6720  142.5536  157.6417 O.2     1  UNL1       -0.1686
     28 O         143.3777  140.8018  159.2624 O.3     1  UNL1       -0.4753
     29 C         143.8328  139.5494  159.9511 C.3     1  UNL1        0.2053
     30 C         143.2742  138.3646  162.1948 C.3     1  UNL1        0.0038
     31 C         143.9070  139.5016  161.4485 C.3     1  UNL1        0.0438
     32 C         144.6140  140.5906  162.1996 C.3     1  UNL1        0.0038
@<TRIPOS>BOND
     1    30    31    1
     2    31    32    1
     3    31    29    1
     4    29    28    1
     5    28    18    1
     6    18    19   ar
     7    19    20   ar
     8    20    21   ar
     9    21    24    1
    10    24    25    1
    11    24    26    2
    12    24    27    2
    13    21    22   ar
    14    22    23   ar
    15    23     1    1
    16     1     2    2
    17     1     3   am
    18     3     4    1
    19     4     5    1
    20     5     6    1
    21     6     9    1
    22     9    10   ar
    23    10    11   ar
    24    11    12   ar
    25    12    16    1
    26    16    17    3
    27    12    13   ar
    28    13    14   ar
    29    14    15    1
    30     6     7    1
    31     7     8    1
    32    23    18   ar
    33     8     3    1
    34    14     9   ar
@<TRIPOS>MOLECULE
*****
 32 34 0 0 0
SMALL
GASTEIGER

@<TRIPOS>ATOM
      1 C         143.0341  140.0809  160.5416 C.2     1  UNL1        0.2521
      2 O         144.2038  139.2226  160.1611 O.2     1  UNL1       -0.2698
      3 N         142.7277  140.3327  161.9883 N.am    1  UNL1       -0.2725
      4 C         141.5579  141.1911  162.3688 C.3     1  UNL1        0.1151
      5 C         141.2516  141.4429  163.8154 C.3     1  UNL1        0.1124
      6 N         142.1151  140.8364  164.8815 N.pl3   1  UNL1       -0.3023
      7 C         143.2849  139.9781  164.5010 C.3     1  UNL1        0.1124
      8 C         143.5912  139.7262  163.0544 C.3     1  UNL1        0.1151
      9 C         141.8088  141.0882  166.3282 C.ar    1  UNL1        0.0758
     10 C         142.6477  142.0504  167.1160 C.ar    1  UNL1        0.0175
     11 C         142.3414  142.3022  168.5626 C.ar    1  UNL1        0.0117
     12 C         141.1962  141.5919  169.2214 C.ar    1  UNL1        0.0708
     13 C         140.3573  140.6299  168.4336 C.ar    1  UNL1        0.0412
     14 C         140.6636  140.3780  166.9870 C.ar    1  UNL1        0.1540
     15 F         139.8246  139.4159  166.1992 F       1  UNL1       -0.2028
     16 C         140.8898  141.8438  170.6681 C.1     1  UNL1        0.1005
     17 N         140.5835  142.0956  172.1147 N.1     1  UNL1       -0.1908
     18 C         140.9924  139.9274  158.9422 C.ar    1  UNL1        0.1429
     19 C         140.1290  140.5339  157.8761 C.ar    1  UNL1        0.0384
     20 C         140.4436  141.9004  157.3434 C.ar    1  UNL1        0.0215
     21 C         141.6217  142.6604  157.8768 C.ar    1  UNL1        0.1061
     22 C         142.4851  142.0539  158.9429 C.ar    1  UNL1        0.0259
     23 C         142.1705  140.6874  159.4755 C.ar    1  UNL1        0.0887
     24 S         141.9363  144.0269  157.3441 S.O2    1  UNL1        0.0105
     25 C         142.2509  145.3933  156.8114 C.3     1  UNL1        0.1816
     26 O         142.7375  144.3231  158.5772 O.2     1  UNL1       -0.1686
     27 O         141.1351  143.7307  156.1111 O.2     1  UNL1       -0.1686
     28 O         140.6778  138.5609  159.4748 O.3     1  UNL1       -0.4753
     29 C         139.3942  138.3209  160.2129 C.3     1  UNL1        0.2053
     30 C         140.4316  137.6592  162.5012 C.3     1  UNL1        0.0038
     31 C         139.3710  138.3680  161.7120 C.3     1  UNL1        0.0438
     32 C         138.2872  139.1239  162.4219 C.3     1  UNL1        0.0038
@<TRIPOS>BOND
     1    30    31    1
     2    31    32    1
     3    31    29    1
     4    29    28    1
     5    28    18    1
     6    18    19   ar
     7    19    20   ar
     8    20    21   ar
     9    21    24    1
    10    24    25    1
    11    24    26    2
    12    24    27    2
    13    21    22   ar
    14    22    23   ar
    15    23     1    1
    16     1     2    2
    17     1     3   am
    18     3     4    1
    19     4     5    1
    20     5     6    1
    21     6     9    1
    22     9    10   ar
    23    10    11   ar
    24    11    12   ar
    25    12    16    1
    26    16    17    3
    27    12    13   ar
    28    13    14   ar
    29    14    15    1
    30     6     7    1
    31     7     8    1
    32    23    18   ar
    33     8     3    1
    34    14     9   ar
