@<TRIPOS>MOLECULE
*****
 37 40 0 0 0
SMALL
GASTEIGER

@<TRIPOS>ATOM
      1 N         141.5204  144.8557  162.5368 N.3     1  UNL1       -0.2653
      2 C         142.2557  144.9408  163.8414 C.3     1  UNL1        0.1036
      3 C         143.2349  143.8701  164.2217 C.3     1  UNL1        0.1470
      4 C         144.2141  142.7993  164.6021 C.3     1  UNL1        0.1035
      5 N         144.4580  141.6434  163.6777 N.3     1  UNL1       -0.2685
      6 C         143.7227  141.5583  162.3730 C.3     1  UNL1        0.1035
      7 C         142.7435  142.6290  161.9927 C.3     1  UNL1        0.1470
      8 C         141.7643  143.6997  161.6125 C.3     1  UNL1        0.1036
      9 O         143.4788  142.7142  163.2974 O.3     1  UNL1       -0.3530
     10 C         140.5412  145.9264  162.1564 C.3     1  UNL1        0.1202
     11 C         139.2249  145.5547  161.5407 C.3     1  UNL1        0.2228
     12 O         138.0815  145.1303  162.4141 O.3     1  UNL1       -0.4717
     13 C         138.2803  141.2252  164.6414 C.ar    1  UNL1        0.0709
     14 C         137.6968  141.2721  163.2603 C.ar    1  UNL1        0.0135
     15 C         137.6306  142.5738  162.5179 C.ar    1  UNL1        0.0399
     16 C         138.1478  143.8286  163.1565 C.ar    1  UNL1        0.1659
     17 C         138.7313  143.7818  164.5375 C.ar    1  UNL1        0.1745
     18 F         139.2485  145.0366  165.1761 F       1  UNL1       -0.2009
     19 C         138.7976  142.4801  165.2800 C.ar    1  UNL1        0.0430
     20 N         138.4129  138.6219  166.1262 N.1     1  UNL1       -0.1908
     21 C         138.3466  139.9236  165.3838 C.1     1  UNL1        0.1005
     22 C         145.4372  140.5726  164.0580 C.3     1  UNL1        0.0737
     23 C         144.9444  139.2652  164.6039 C.3     1  UNL1        0.0362
     24 C         143.5387  139.1473  165.1136 C.3     1  UNL1        0.0929
     25 N         143.2888  138.7812  166.5466 N.3     1  UNL1       -0.1793
     26 H         144.2026  138.6747  166.9869 H       1  UNL1        0.1488
     27 S         142.4883  139.6957  167.4258 S.O2    1  UNL1        0.0624
     28 O         142.9878  138.9673  168.6382 O.2     1  UNL1       -0.1529
     29 O         141.9888  140.4242  166.2135 O.2     1  UNL1       -0.1529
     30 C         141.6880  140.6102  168.3050 C.ar    1  UNL1        0.1494
     31 C         140.3416  140.1796  168.8067 C.ar    1  UNL1        0.0245
     32 C         139.5411  141.0941  169.6860 C.ar    1  UNL1        0.0312
     33 C         140.0872  142.4392  170.0635 C.ar    1  UNL1        0.1425
     34 F         139.2868  143.3537  170.9428 F       1  UNL1       -0.2041
     35 C         141.4337  142.8698  169.5618 C.ar    1  UNL1        0.0606
     36 C         142.2340  141.9553  168.6826 C.ar    1  UNL1        0.1608
     37 F         143.5805  142.3859  168.1810 F       1  UNL1       -0.2027
@<TRIPOS>BOND
     1    20    21    3
     2    21    13    1
     3    13    14   ar
     4    14    15   ar
     5    15    16   ar
     6    16    12    1
     7    12    11    1
     8    11    10    1
     9    10     1    1
    10     1     2    1
    11     2     3    1
    12     3     4    1
    13     4     5    1
    14     5    22    1
    15    22    23    1
    16    23    24    1
    17    24    25    1
    18    25    27    1
    19    27    28    2
    20    27    29    2
    21    27    30    1
    22    30    31   ar
    23    31    32   ar
    24    32    33   ar
    25    33    34    1
    26    33    35   ar
    27    35    36   ar
    28    36    37    1
    29     5     6    1
    30     6     7    1
    31     7     8    1
    32     7     9    1
    33    16    17   ar
    34    17    18    1
    35    17    19   ar
    36    19    13   ar
    37     8     1    1
    38     9     3    1
    39    36    30   ar
    40    25    26    1
@<TRIPOS>MOLECULE
*****
 37 40 0 0 0
SMALL
GASTEIGER

@<TRIPOS>ATOM
      1 N         138.8505  140.9973  165.3610 N.3     1  UNL1       -0.2653
      2 C         139.6871  142.1448  165.8440 C.3     1  UNL1        0.1036
      3 C         139.8184  143.3821  165.0062 C.3     1  UNL1        0.1470
      4 C         139.9499  144.6194  164.1684 C.3     1  UNL1        0.1035
      5 N         139.2447  144.7091  162.8475 N.3     1  UNL1       -0.2685
      6 C         138.4081  143.5615  162.3645 C.3     1  UNL1        0.1035
      7 C         138.2767  142.3243  163.2023 C.3     1  UNL1        0.1470
      8 C         138.1453  141.0871  164.0401 C.3     1  UNL1        0.1036
      9 O         139.1133  143.4718  163.6854 O.3     1  UNL1       -0.3530
     10 C         138.7191  139.7600  166.1988 C.3     1  UNL1        0.1202
     11 C         138.3109  138.4640  165.5636 C.3     1  UNL1        0.2228
     12 O         139.3550  137.4682  165.1532 O.3     1  UNL1       -0.4717
     13 C         141.6986  138.0978  161.3636 C.ar    1  UNL1        0.0709
     14 C         142.4169  137.8940  162.6646 C.ar    1  UNL1        0.0135
     15 C         141.6357  137.6841  163.9278 C.ar    1  UNL1        0.0399
     16 C         140.1362  137.6781  163.8900 C.ar    1  UNL1        0.1659
     17 C         139.4179  137.8819  162.5891 C.ar    1  UNL1        0.1745
     18 F         137.9184  137.8759  162.5514 F       1  UNL1       -0.2009
     19 C         140.1991  138.0918  161.3259 C.ar    1  UNL1        0.0430
     20 N         143.2609  138.5176  158.8373 N.1     1  UNL1       -0.1908
     21 C         142.4798  138.3077  160.1004 C.1     1  UNL1        0.1005
     22 C         139.3761  145.9463  162.0097 C.3     1  UNL1        0.0737
     23 C         140.0400  145.8755  160.6665 C.3     1  UNL1        0.0362
     24 C         141.2219  144.9752  160.4606 C.3     1  UNL1        0.0929
     25 N         142.4366  145.1220  161.3283 N.3     1  UNL1       -0.1793
     26 H         142.1944  145.7856  162.0640 H       1  UNL1        0.1488
     27 S         143.0239  143.9195  162.0060 S.O2    1  UNL1        0.0624
     28 O         144.1910  144.7453  162.4596 O.2     1  UNL1       -0.1529
     29 O         141.8567  143.0937  161.5524 O.2     1  UNL1       -0.1529
     30 C         143.6112  142.7171  162.6837 C.ar    1  UNL1        0.1494
     31 C         144.1873  141.6009  161.8639 C.ar    1  UNL1        0.0245
     32 C         144.7747  140.3984  162.5416 C.ar    1  UNL1        0.0312
     33 C         144.7859  140.3123  164.0391 C.ar    1  UNL1        0.1425
     34 F         145.3732  139.1099  164.7168 F       1  UNL1       -0.2041
     35 C         144.2097  141.4286  164.8589 C.ar    1  UNL1        0.0606
     36 C         143.6224  142.6309  164.1812 C.ar    1  UNL1        0.1608
     37 F         143.0463  143.7471  165.0010 F       1  UNL1       -0.2027
@<TRIPOS>BOND
     1    20    21    3
     2    21    13    1
     3    13    14   ar
     4    14    15   ar
     5    15    16   ar
     6    16    12    1
     7    12    11    1
     8    11    10    1
     9    10     1    1
    10     1     2    1
    11     2     3    1
    12     3     4    1
    13     4     5    1
    14     5    22    1
    15    22    23    1
    16    23    24    1
    17    24    25    1
    18    25    27    1
    19    27    28    2
    20    27    29    2
    21    27    30    1
    22    30    31   ar
    23    31    32   ar
    24    32    33   ar
    25    33    34    1
    26    33    35   ar
    27    35    36   ar
    28    36    37    1
    29     5     6    1
    30     6     7    1
    31     7     8    1
    32     7     9    1
    33    16    17   ar
    34    17    18    1
    35    17    19   ar
    36    19    13   ar
    37     8     1    1
    38     9     3    1
    39    36    30   ar
    40    25    26    1
@<TRIPOS>MOLECULE
*****
 37 40 0 0 0
SMALL
GASTEIGER

@<TRIPOS>ATOM
      1 N         144.2461  140.9906  163.5445 N.3     1  UNL1       -0.2653
      2 C         143.3653  140.6727  162.3727 C.3     1  UNL1        0.1036
      3 C         142.5202  141.7477  161.7562 C.3     1  UNL1        0.1470
      4 C         141.6749  142.8227  161.1398 C.3     1  UNL1        0.1035
      5 N         141.7105  144.2156  161.6951 N.3     1  UNL1       -0.2685
      6 C         142.5913  144.5336  162.8670 C.3     1  UNL1        0.1035
      7 C         143.4364  143.4586  163.4834 C.3     1  UNL1        0.1470
      8 C         144.2816  142.3836  164.0998 C.3     1  UNL1        0.1036
      9 O         142.5557  143.1406  162.3116 O.3     1  UNL1       -0.3530
     10 C         145.0913  139.9156  164.1609 C.3     1  UNL1        0.1202
     11 C         144.4930  138.9733  165.1629 C.3     1  UNL1        0.2228
     12 O         143.0088  138.9515  165.3790 O.3     1  UNL1       -0.4717
     13 C         141.2082  141.1705  168.8551 C.ar    1  UNL1        0.0709
     14 C         142.0647  139.9633  169.0985 C.ar    1  UNL1        0.0135
     15 C         142.6649  139.2237  167.9397 C.ar    1  UNL1        0.0399
     16 C         142.4086  139.6911  166.5377 C.ar    1  UNL1        0.1659
     17 C         141.5522  140.8983  166.2943 C.ar    1  UNL1        0.1745
     18 F         141.2959  141.3658  164.8923 F       1  UNL1       -0.2009
     19 C         140.9519  141.6380  167.4531 C.ar    1  UNL1        0.0430
     20 N         140.0079  142.6498  171.1726 N.1     1  UNL1       -0.1908
     21 C         140.6081  141.9102  170.0139 C.1     1  UNL1        0.1005
     22 C         140.8653  145.2906  161.0787 C.3     1  UNL1        0.0737
     23 C         139.7412  145.9022  161.8614 C.3     1  UNL1        0.0362
     24 C         138.8728  145.0380  162.7269 C.3     1  UNL1        0.0929
     25 N         138.1954  143.8333  162.1440 N.3     1  UNL1       -0.1793
     26 H         138.5458  143.7304  161.1916 H       1  UNL1        0.1488
     27 S         138.3432  142.4957  162.8067 S.O2    1  UNL1        0.0624
     28 O         137.3927  141.8980  161.8122 O.2     1  UNL1       -0.1529
     29 O         139.2938  143.0934  163.8012 O.2     1  UNL1       -0.1529
     30 C         138.4910  141.1581  163.4693 C.ar    1  UNL1        0.1494
     31 C         138.0343  140.9682  164.8854 C.ar    1  UNL1        0.0245
     32 C         138.1821  139.6306  165.5481 C.ar    1  UNL1        0.0312
     33 C         138.7866  138.4830  164.7946 C.ar    1  UNL1        0.1425
     34 F         138.9344  137.1455  165.4572 F       1  UNL1       -0.2041
     35 C         139.2433  138.6731  163.3785 C.ar    1  UNL1        0.0606
     36 C         139.0955  140.0106  162.7159 C.ar    1  UNL1        0.1608
     37 F         139.5523  140.2006  161.2998 F       1  UNL1       -0.2027
@<TRIPOS>BOND
     1    20    21    3
     2    21    13    1
     3    13    14   ar
     4    14    15   ar
     5    15    16   ar
     6    16    12    1
     7    12    11    1
     8    11    10    1
     9    10     1    1
    10     1     2    1
    11     2     3    1
    12     3     4    1
    13     4     5    1
    14     5    22    1
    15    22    23    1
    16    23    24    1
    17    24    25    1
    18    25    27    1
    19    27    28    2
    20    27    29    2
    21    27    30    1
    22    30    31   ar
    23    31    32   ar
    24    32    33   ar
    25    33    34    1
    26    33    35   ar
    27    35    36   ar
    28    36    37    1
    29     5     6    1
    30     6     7    1
    31     7     8    1
    32     7     9    1
    33    16    17   ar
    34    17    18    1
    35    17    19   ar
    36    19    13   ar
    37     8     1    1
    38     9     3    1
    39    36    30   ar
    40    25    26    1
@<TRIPOS>MOLECULE
*****
 37 40 0 0 0
SMALL
GASTEIGER

@<TRIPOS>ATOM
      1 N         143.5581  140.2718  162.7255 N.3     1  UNL1       -0.2653
      2 C         142.1869  140.6109  162.2209 C.3     1  UNL1        0.1036
      3 C         140.9930  139.8598  162.7312 C.3     1  UNL1        0.1470
      4 C         139.7990  139.1087  163.2415 C.3     1  UNL1        0.1035
      5 N         139.9763  138.0185  164.2564 N.3     1  UNL1       -0.2685
      6 C         141.3477  137.6794  164.7610 C.3     1  UNL1        0.1035
      7 C         142.5416  138.4305  164.2507 C.3     1  UNL1        0.1470
      8 C         143.7355  139.1815  163.7404 C.3     1  UNL1        0.1036
      9 O         141.1703  138.7696  163.7461 O.3     1  UNL1       -0.3530
     10 C         144.7521  141.0229  162.2152 C.3     1  UNL1        0.1202
     11 C         145.5722  141.8557  163.1553 C.3     1  UNL1        0.2228
     12 O         145.1576  143.2633  163.4668 O.3     1  UNL1       -0.4717
     13 C         140.8822  144.1632  164.5444 C.ar    1  UNL1        0.0709
     14 C         141.5293  144.8693  163.3899 C.ar    1  UNL1        0.0135
     15 C         142.9544  144.5693  163.0307 C.ar    1  UNL1        0.0399
     16 C         143.7325  143.5632  163.8260 C.ar    1  UNL1        0.1659
     17 C         143.0854  142.8571  164.9804 C.ar    1  UNL1        0.1745
     18 F         143.8635  141.8510  165.7756 F       1  UNL1       -0.2009
     19 C         141.6603  143.1571  165.3396 C.ar    1  UNL1        0.0430
     20 N         138.0320  144.7632  165.2628 N.1     1  UNL1       -0.1908
     21 C         139.4571  144.4632  164.9036 C.1     1  UNL1        0.1005
     22 C         138.7824  137.2674  164.7667 C.3     1  UNL1        0.0737
     23 C         138.1141  137.6965  166.0393 C.3     1  UNL1        0.0362
     24 C         138.3976  139.0522  166.6151 C.3     1  UNL1        0.0929
     25 N         138.5224  139.2252  168.0998 N.3     1  UNL1       -0.1793
     26 H         138.7055  138.3006  168.4896 H       1  UNL1        0.1488
     27 S         139.5638  140.1465  168.6627 S.O2    1  UNL1        0.0624
     28 O         140.1929  140.2640  167.3061 O.2     1  UNL1       -0.1529
     29 O         138.9347  140.0289  170.0192 O.2     1  UNL1       -0.1529
     30 C         140.6052  141.0677  169.2254 C.ar    1  UNL1        0.1494
     31 C         140.2810  142.5138  169.4571 C.ar    1  UNL1        0.0245
     32 C         141.3224  143.4351  170.0199 C.ar    1  UNL1        0.0312
     33 C         142.6880  142.9103  170.3510 C.ar    1  UNL1        0.1425
     34 F         143.7294  143.8316  170.9137 F       1  UNL1       -0.2041
     35 C         143.0123  141.4642  170.1192 C.ar    1  UNL1        0.0606
     36 C         141.9709  140.5429  169.5564 C.ar    1  UNL1        0.1608
     37 F         142.2951  139.0969  169.3247 F       1  UNL1       -0.2027
@<TRIPOS>BOND
     1    20    21    3
     2    21    13    1
     3    13    14   ar
     4    14    15   ar
     5    15    16   ar
     6    16    12    1
     7    12    11    1
     8    11    10    1
     9    10     1    1
    10     1     2    1
    11     2     3    1
    12     3     4    1
    13     4     5    1
    14     5    22    1
    15    22    23    1
    16    23    24    1
    17    24    25    1
    18    25    27    1
    19    27    28    2
    20    27    29    2
    21    27    30    1
    22    30    31   ar
    23    31    32   ar
    24    32    33   ar
    25    33    34    1
    26    33    35   ar
    27    35    36   ar
    28    36    37    1
    29     5     6    1
    30     6     7    1
    31     7     8    1
    32     7     9    1
    33    16    17   ar
    34    17    18    1
    35    17    19   ar
    36    19    13   ar
    37     8     1    1
    38     9     3    1
    39    36    30   ar
    40    25    26    1
@<TRIPOS>MOLECULE
*****
 37 40 0 0 0
SMALL
GASTEIGER

@<TRIPOS>ATOM
      1 N         139.2935  137.8881  164.1122 N.3     1  UNL1       -0.2653
      2 C         138.4823  138.1529  162.8786 C.3     1  UNL1        0.1036
      3 C         139.1599  138.2637  161.5449 C.3     1  UNL1        0.1470
      4 C         139.8374  138.3744  160.2112 C.3     1  UNL1        0.1035
      5 N         141.3261  138.2203  160.1111 N.3     1  UNL1       -0.2685
      6 C         142.1373  137.9554  161.3448 C.3     1  UNL1        0.1035
      7 C         141.4598  137.8447  162.6785 C.3     1  UNL1        0.1470
      8 C         140.7822  137.7340  164.0121 C.3     1  UNL1        0.1036
      9 O         140.6486  138.1095  161.4449 O.3     1  UNL1       -0.3530
     10 C         138.6160  137.7774  165.4459 C.3     1  UNL1        0.1202
     11 C         138.2416  139.0174  166.2022 C.3     1  UNL1        0.2228
     12 O         139.2433  140.1201  166.3776 O.3     1  UNL1       -0.4717
     13 C         139.1821  143.6753  163.6195 C.ar    1  UNL1        0.0709
     14 C         138.0930  142.6467  163.5416 C.ar    1  UNL1        0.0135
     15 C         138.1135  141.4617  164.4609 C.ar    1  UNL1        0.0399
     16 C         139.2229  141.3052  165.4583 C.ar    1  UNL1        0.1659
     17 C         140.3119  142.3337  165.5362 C.ar    1  UNL1        0.1745
     18 F         141.4214  142.1771  166.5336 F       1  UNL1       -0.2009
     19 C         140.2916  143.5188  164.6169 C.ar    1  UNL1        0.0430
     20 N         139.1413  146.0454  161.7809 N.1     1  UNL1       -0.1908
     21 C         139.1617  144.8603  162.7002 C.1     1  UNL1        0.1005
     22 C         142.0036  138.3310  158.7775 C.3     1  UNL1        0.0737
     23 C         143.0941  139.3403  158.5717 C.3     1  UNL1        0.0362
     24 C         142.8101  140.8007  158.7629 C.3     1  UNL1        0.0929
     25 N         141.9340  141.2526  159.8934 N.3     1  UNL1       -0.1793
     26 H         141.3777  140.4456  160.1756 H       1  UNL1        0.1488
     27 S         142.5494  141.8122  161.1417 S.O2    1  UNL1        0.0624
     28 O         141.3488  141.3772  161.9286 O.2     1  UNL1       -0.1529
     29 O         143.7501  142.2472  160.3549 O.2     1  UNL1       -0.1529
     30 C         143.1648  142.3717  162.3900 C.ar    1  UNL1        0.1494
     31 C         143.8078  141.4528  163.3861 C.ar    1  UNL1        0.0245
     32 C         144.4232  142.0123  164.6344 C.ar    1  UNL1        0.0312
     33 C         144.3955  143.4907  164.8867 C.ar    1  UNL1        0.1425
     34 F         145.0109  144.0502  166.1350 F       1  UNL1       -0.2041
     35 C         143.7525  144.4096  163.8906 C.ar    1  UNL1        0.0606
     36 C         143.1371  143.8501  162.6423 C.ar    1  UNL1        0.1608
     37 F         142.4941  144.7689  161.6462 F       1  UNL1       -0.2027
@<TRIPOS>BOND
     1    20    21    3
     2    21    13    1
     3    13    14   ar
     4    14    15   ar
     5    15    16   ar
     6    16    12    1
     7    12    11    1
     8    11    10    1
     9    10     1    1
    10     1     2    1
    11     2     3    1
    12     3     4    1
    13     4     5    1
    14     5    22    1
    15    22    23    1
    16    23    24    1
    17    24    25    1
    18    25    27    1
    19    27    28    2
    20    27    29    2
    21    27    30    1
    22    30    31   ar
    23    31    32   ar
    24    32    33   ar
    25    33    34    1
    26    33    35   ar
    27    35    36   ar
    28    36    37    1
    29     5     6    1
    30     6     7    1
    31     7     8    1
    32     7     9    1
    33    16    17   ar
    34    17    18    1
    35    17    19   ar
    36    19    13   ar
    37     8     1    1
    38     9     3    1
    39    36    30   ar
    40    25    26    1
@<TRIPOS>MOLECULE
*****
 37 40 0 0 0
SMALL
GASTEIGER

@<TRIPOS>ATOM
      1 N         139.3417  137.8513  164.0507 N.3     1  UNL1       -0.2653
      2 C         138.5223  138.1635  162.8337 C.3     1  UNL1        0.1036
      3 C         139.1854  138.2831  161.4936 C.3     1  UNL1        0.1470
      4 C         139.8485  138.4027  160.1534 C.3     1  UNL1        0.1035
      5 N         141.3310  138.2103  160.0303 N.3     1  UNL1       -0.2685
      6 C         142.1504  137.8981  161.2474 C.3     1  UNL1        0.1035
      7 C         141.4873  137.7785  162.5875 C.3     1  UNL1        0.1470
      8 C         140.8242  137.6589  163.9276 C.3     1  UNL1        0.1036
      9 O         140.6679  138.0906  161.3705 O.3     1  UNL1       -0.3530
     10 C         138.6786  137.7317  165.3909 C.3     1  UNL1        0.1202
     11 C         138.3092  138.9667  166.1578 C.3     1  UNL1        0.2228
     12 O         138.4391  138.9886  167.6521 O.3     1  UNL1       -0.4717
     13 C         141.2776  141.8718  169.6219 C.ar    1  UNL1        0.0709
     14 C         141.5966  141.3128  168.2669 C.ar    1  UNL1        0.0135
     15 C         140.6504  140.3518  167.6103 C.ar    1  UNL1        0.0399
     16 C         139.3852  139.9496  168.3087 C.ar    1  UNL1        0.1659
     17 C         139.0663  140.5085  169.6636 C.ar    1  UNL1        0.1745
     18 F         137.8011  140.1064  170.3619 F       1  UNL1       -0.2009
     19 C         140.0124  141.4696  170.3202 C.ar    1  UNL1        0.0430
     20 N         143.1699  143.7938  170.9351 N.1     1  UNL1       -0.1908
     21 C         142.2238  142.8328  170.2785 C.1     1  UNL1        0.1005
     22 C         141.9941  138.3299  158.6902 C.3     1  UNL1        0.0737
     23 C         143.1015  139.3212  158.4871 C.3     1  UNL1        0.0362
     24 C         142.8647  140.7768  158.7612 C.3     1  UNL1        0.0929
     25 N         142.0023  141.1918  159.9162 N.3     1  UNL1       -0.1793
     26 H         141.4822  140.3642  160.2076 H       1  UNL1        0.1488
     27 S         142.6292  141.7666  161.1518 S.O2    1  UNL1        0.0624
     28 O         143.8276  142.1815  160.3507 O.2     1  UNL1       -0.1529
     29 O         141.4309  141.3517  161.9529 O.2     1  UNL1       -0.1529
     30 C         143.2562  142.3413  162.3873 C.ar    1  UNL1        0.1494
     31 C         142.8602  143.7076  162.8631 C.ar    1  UNL1        0.0245
     32 C         143.4871  144.2824  164.0987 C.ar    1  UNL1        0.0312
     33 C         144.5101  143.4909  164.8584 C.ar    1  UNL1        0.1425
     34 F         145.1370  144.0657  166.0939 F       1  UNL1       -0.2041
     35 C         144.9061  142.1246  164.3825 C.ar    1  UNL1        0.0606
     36 C         144.2791  141.5498  163.1470 C.ar    1  UNL1        0.1608
     37 F         144.6751  140.1836  162.6712 F       1  UNL1       -0.2027
@<TRIPOS>BOND
     1    20    21    3
     2    21    13    1
     3    13    14   ar
     4    14    15   ar
     5    15    16   ar
     6    16    12    1
     7    12    11    1
     8    11    10    1
     9    10     1    1
    10     1     2    1
    11     2     3    1
    12     3     4    1
    13     4     5    1
    14     5    22    1
    15    22    23    1
    16    23    24    1
    17    24    25    1
    18    25    27    1
    19    27    28    2
    20    27    29    2
    21    27    30    1
    22    30    31   ar
    23    31    32   ar
    24    32    33   ar
    25    33    34    1
    26    33    35   ar
    27    35    36   ar
    28    36    37    1
    29     5     6    1
    30     6     7    1
    31     7     8    1
    32     7     9    1
    33    16    17   ar
    34    17    18    1
    35    17    19   ar
    36    19    13   ar
    37     8     1    1
    38     9     3    1
    39    36    30   ar
    40    25    26    1
@<TRIPOS>MOLECULE
*****
 37 40 0 0 0
SMALL
GASTEIGER

@<TRIPOS>ATOM
      1 N         139.4335  137.9657  164.4876 N.3     1  UNL1       -0.2653
      2 C         140.9016  137.7525  164.7096 C.3     1  UNL1        0.1036
      3 C         141.8581  137.8652  163.5597 C.3     1  UNL1        0.1470
      4 C         142.8146  137.9778  162.4097 C.3     1  UNL1        0.1035
      5 N         142.3031  138.3037  161.0378 N.3     1  UNL1       -0.2685
      6 C         140.8349  138.5169  160.8159 C.3     1  UNL1        0.1035
      7 C         139.8784  138.4042  161.9658 C.3     1  UNL1        0.1470
      8 C         138.9220  138.2915  163.1158 C.3     1  UNL1        0.1036
      9 O         141.3465  138.1910  162.1878 O.3     1  UNL1       -0.3530
     10 C         138.4770  137.8530  165.6376 C.3     1  UNL1        0.1202
     11 C         138.0962  139.0755  166.4190 C.3     1  UNL1        0.2228
     12 O         138.4725  139.1876  167.8668 O.3     1  UNL1       -0.4717
     13 C         142.1574  141.4767  169.0631 C.ar    1  UNL1        0.0709
     14 C         142.1866  140.5856  167.8568 C.ar    1  UNL1        0.0135
     15 C         140.9584  139.8226  167.4580 C.ar    1  UNL1        0.0399
     16 C         139.7008  139.9506  168.2655 C.ar    1  UNL1        0.1659
     17 C         139.6714  140.8417  169.4718 C.ar    1  UNL1        0.1745
     18 F         138.4138  140.9697  170.2793 F       1  UNL1       -0.2009
     19 C         140.8998  141.6048  169.8706 C.ar    1  UNL1        0.0430
     20 N         144.6139  143.0028  169.8607 N.1     1  UNL1       -0.1908
     21 C         143.3856  142.2398  169.4619 C.1     1  UNL1        0.1005
     22 C         143.2595  138.4164  159.8879 C.3     1  UNL1        0.0737
     23 C         143.3807  139.7093  159.1370 C.3     1  UNL1        0.0362
     24 C         143.5432  140.9989  159.8856 C.3     1  UNL1        0.0929
     25 N         143.7317  140.9837  161.3736 N.3     1  UNL1       -0.1793
     26 H         144.6644  141.3540  161.5560 H       1  UNL1        0.1488
     27 S         142.7848  141.7405  162.2573 S.O2    1  UNL1        0.0624
     28 O         143.7671  141.6500  163.3872 O.2     1  UNL1       -0.1529
     29 O         141.8025  141.8310  161.1274 O.2     1  UNL1       -0.1529
     30 C         141.8381  142.4972  163.1410 C.ar    1  UNL1        0.1494
     31 C         140.9848  141.7606  164.1305 C.ar    1  UNL1        0.0245
     32 C         140.0380  142.5173  165.0143 C.ar    1  UNL1        0.0312
     33 C         139.9445  144.0107  164.9085 C.ar    1  UNL1        0.1425
     34 F         138.9977  144.7674  165.7922 F       1  UNL1       -0.2041
     35 C         140.7978  144.7473  163.9189 C.ar    1  UNL1        0.0606
     36 C         141.7446  143.9906  163.0352 C.ar    1  UNL1        0.1608
     37 F         142.5979  144.7272  162.0456 F       1  UNL1       -0.2027
@<TRIPOS>BOND
     1    20    21    3
     2    21    13    1
     3    13    14   ar
     4    14    15   ar
     5    15    16   ar
     6    16    12    1
     7    12    11    1
     8    11    10    1
     9    10     1    1
    10     1     2    1
    11     2     3    1
    12     3     4    1
    13     4     5    1
    14     5    22    1
    15    22    23    1
    16    23    24    1
    17    24    25    1
    18    25    27    1
    19    27    28    2
    20    27    29    2
    21    27    30    1
    22    30    31   ar
    23    31    32   ar
    24    32    33   ar
    25    33    34    1
    26    33    35   ar
    27    35    36   ar
    28    36    37    1
    29     5     6    1
    30     6     7    1
    31     7     8    1
    32     7     9    1
    33    16    17   ar
    34    17    18    1
    35    17    19   ar
    36    19    13   ar
    37     8     1    1
    38     9     3    1
    39    36    30   ar
    40    25    26    1
@<TRIPOS>MOLECULE
*****
 37 40 0 0 0
SMALL
GASTEIGER

@<TRIPOS>ATOM
      1 N         139.7877  138.0410  163.3059 N.3     1  UNL1       -0.2653
      2 C         141.2652  137.7845  163.2702 C.3     1  UNL1        0.1036
      3 C         142.0097  137.8680  161.9708 C.3     1  UNL1        0.1470
      4 C         142.7544  137.9516  160.6713 C.3     1  UNL1        0.1035
      5 N         142.0215  138.2918  159.4075 N.3     1  UNL1       -0.2685
      6 C         140.5440  138.5483  159.4432 C.3     1  UNL1        0.1035
      7 C         139.7994  138.4648  160.7426 C.3     1  UNL1        0.1470
      8 C         139.0549  138.3812  162.0421 C.3     1  UNL1        0.1036
      9 O         141.2769  138.2082  160.7070 O.3     1  UNL1       -0.3530
     10 C         139.0431  137.9575  164.6054 C.3     1  UNL1        0.1202
     11 C         139.1471  139.0732  165.6024 C.3     1  UNL1        0.2228
     12 O         138.1685  140.2094  165.5613 O.3     1  UNL1       -0.4717
     13 C         139.1971  143.9855  163.3402 C.ar    1  UNL1        0.0709
     14 C         139.8302  143.7015  164.6701 C.ar    1  UNL1        0.0135
     15 C         139.4873  142.4428  165.4105 C.ar    1  UNL1        0.0399
     16 C         138.5114  141.4681  164.8210 C.ar    1  UNL1        0.1659
     17 C         137.8783  141.7521  163.4912 C.ar    1  UNL1        0.1745
     18 F         136.9024  140.7773  162.9017 F       1  UNL1       -0.2009
     19 C         138.2212  143.0108  162.7507 C.ar    1  UNL1        0.0430
     20 N         139.8828  146.5028  161.8595 N.1     1  UNL1       -0.1908
     21 C         139.5399  145.2441  162.5999 C.1     1  UNL1        0.1005
     22 C         142.7661  138.3753  158.1081 C.3     1  UNL1        0.0737
     23 C         143.1072  139.7142  157.5238 C.3     1  UNL1        0.0362
     24 C         143.5159  140.8428  158.4233 C.3     1  UNL1        0.0929
     25 N         142.5399  141.4026  159.4151 N.3     1  UNL1       -0.1793
     26 H         141.8677  140.6624  159.6167 H       1  UNL1        0.1488
     27 S         143.0262  141.9177  160.7374 S.O2    1  UNL1        0.0624
     28 O         141.7532  141.4588  161.3844 O.2     1  UNL1       -0.1529
     29 O         144.2993  142.3766  160.0903 O.2     1  UNL1       -0.1529
     30 C         143.5126  142.4327  162.0595 C.ar    1  UNL1        0.1494
     31 C         143.0207  143.7517  162.5775 C.ar    1  UNL1        0.0245
     32 C         143.5070  144.2668  163.8997 C.ar    1  UNL1        0.0312
     33 C         144.4852  143.4628  164.7040 C.ar    1  UNL1        0.1425
     34 F         144.9715  143.9778  166.0261 F       1  UNL1       -0.2041
     35 C         144.9771  142.1438  164.1859 C.ar    1  UNL1        0.0606
     36 C         144.4908  141.6287  162.8638 C.ar    1  UNL1        0.1608
     37 F         144.9827  140.3098  162.3458 F       1  UNL1       -0.2027
@<TRIPOS>BOND
     1    20    21    3
     2    21    13    1
     3    13    14   ar
     4    14    15   ar
     5    15    16   ar
     6    16    12    1
     7    12    11    1
     8    11    10    1
     9    10     1    1
    10     1     2    1
    11     2     3    1
    12     3     4    1
    13     4     5    1
    14     5    22    1
    15    22    23    1
    16    23    24    1
    17    24    25    1
    18    25    27    1
    19    27    28    2
    20    27    29    2
    21    27    30    1
    22    30    31   ar
    23    31    32   ar
    24    32    33   ar
    25    33    34    1
    26    33    35   ar
    27    35    36   ar
    28    36    37    1
    29     5     6    1
    30     6     7    1
    31     7     8    1
    32     7     9    1
    33    16    17   ar
    34    17    18    1
    35    17    19   ar
    36    19    13   ar
    37     8     1    1
    38     9     3    1
    39    36    30   ar
    40    25    26    1
@<TRIPOS>MOLECULE
*****
 37 40 0 0 0
SMALL
GASTEIGER

@<TRIPOS>ATOM
      1 N         140.9533  138.5874  160.9108 N.3     1  UNL1       -0.2653
      2 C         139.7903  139.5196  161.0788 C.3     1  UNL1        0.1036
      3 C         139.1066  139.6337  162.4090 C.3     1  UNL1        0.1470
      4 C         138.4229  139.7478  163.7393 C.3     1  UNL1        0.1035
      5 N         138.9022  138.9296  164.9015 N.3     1  UNL1       -0.2685
      6 C         140.0653  137.9974  164.7335 C.3     1  UNL1        0.1035
      7 C         140.7490  137.8833  163.4033 C.3     1  UNL1        0.1470
      8 C         141.4327  137.7692  162.0730 C.3     1  UNL1        0.1036
      9 O         139.5860  138.8155  163.5712 O.3     1  UNL1       -0.3530
     10 C         141.6370  138.4732  159.5805 C.3     1  UNL1        0.1202
     11 C         142.7272  139.4356  159.2126 C.3     1  UNL1        0.2228
     12 O         144.0267  139.4189  159.9616 O.3     1  UNL1       -0.4717
     13 C         144.6315  142.1591  163.4795 C.ar    1  UNL1        0.0709
     14 C         144.4313  142.7324  162.1078 C.ar    1  UNL1        0.0135
     15 C         144.2298  141.8190  160.9352 C.ar    1  UNL1        0.0399
     16 C         144.2283  140.3323  161.1342 C.ar    1  UNL1        0.1659
     17 C         144.4285  139.7589  162.5057 C.ar    1  UNL1        0.1745
     18 F         144.4270  138.2722  162.7046 F       1  UNL1       -0.2009
     19 C         144.6301  140.6723  163.6784 C.ar    1  UNL1        0.0430
     20 N         145.0347  143.9858  165.8247 N.1     1  UNL1       -0.1908
     21 C         144.8331  143.0725  164.6521 C.1     1  UNL1        0.1005
     22 C         138.2186  139.0437  166.2317 C.3     1  UNL1        0.0737
     23 C         139.0001  139.4565  167.4438 C.3     1  UNL1        0.0362
     24 C         139.7026  140.7816  167.4677 C.3     1  UNL1        0.0929
     25 N         140.7499  141.0939  166.4404 N.3     1  UNL1       -0.1793
     26 H         140.8709  140.2517  165.8778 H       1  UNL1        0.1488
     27 S         140.5452  142.2293  165.4817 S.O2    1  UNL1        0.0624
     28 O         141.2569  141.4548  164.4124 O.2     1  UNL1       -0.1529
     29 O         139.8335  143.0039  166.5511 O.2     1  UNL1       -0.1529
     30 C         140.3405  143.3647  164.5231 C.ar    1  UNL1        0.1494
     31 C         141.5091  144.1976  164.0866 C.ar    1  UNL1        0.0245
     32 C         141.3044  145.3331  163.1280 C.ar    1  UNL1        0.0312
     33 C         139.9311  145.6355  162.6058 C.ar    1  UNL1        0.1425
     34 F         139.7264  146.7708  161.6472 F       1  UNL1       -0.2041
     35 C         138.7625  144.8024  163.0423 C.ar    1  UNL1        0.0606
     36 C         138.9672  143.6671  164.0010 C.ar    1  UNL1        0.1608
     37 F         137.7986  142.8341  164.4374 F       1  UNL1       -0.2027
@<TRIPOS>BOND
     1    20    21    3
     2    21    13    1
     3    13    14   ar
     4    14    15   ar
     5    15    16   ar
     6    16    12    1
     7    12    11    1
     8    11    10    1
     9    10     1    1
    10     1     2    1
    11     2     3    1
    12     3     4    1
    13     4     5    1
    14     5    22    1
    15    22    23    1
    16    23    24    1
    17    24    25    1
    18    25    27    1
    19    27    28    2
    20    27    29    2
    21    27    30    1
    22    30    31   ar
    23    31    32   ar
    24    32    33   ar
    25    33    34    1
    26    33    35   ar
    27    35    36   ar
    28    36    37    1
    29     5     6    1
    30     6     7    1
    31     7     8    1
    32     7     9    1
    33    16    17   ar
    34    17    18    1
    35    17    19   ar
    36    19    13   ar
    37     8     1    1
    38     9     3    1
    39    36    30   ar
    40    25    26    1
