@<TRIPOS>MOLECULE
*****
 30 34 0 0 0
SMALL
GASTEIGER

@<TRIPOS>ATOM
      1 C         138.6718  138.4792  162.7875 C.3     1  UNL1        0.0718
      2 C         139.2394  137.5051  163.7771 C.3     1  UNL1        0.0368
      3 C         139.3336  137.8779  165.2269 C.3     1  UNL1        0.0741
      4 N         138.8602  139.2247  165.6873 N.3     1  UNL1       -0.2688
      5 C         138.2927  140.1988  164.6979 C.3     1  UNL1        0.0741
      6 C         138.1985  139.8261  163.2479 C.3     1  UNL1        0.0368
      7 N         138.5776  138.1064  161.3377 N.pl3   1  UNL1       -0.3337
      8 H         138.1985  137.2361  161.0768 H       1  UNL1        0.1468
      9 O         137.5750  141.6635  157.6850 O.2     1  UNL1       -0.2444
     10 C         138.5599  140.8382  158.4589 C.ar    1  UNL1        0.3472
     11 C         138.0764  139.8850  159.5113 C.ar    1  UNL1        0.0966
     12 C         139.0612  139.0596  160.2852 C.ar    1  UNL1        0.0541
     13 C         140.5296  139.1875  160.0067 C.ar    1  UNL1        0.0488
     14 C         141.5144  138.3622  160.7806 C.ar    1  UNL1        0.0157
     15 C         142.9827  138.4901  160.5021 C.ar    1  UNL1        0.0579
     16 CL        143.9676  137.6647  161.2760 Cl      1  UNL1       -0.0822
     17 C         143.4662  139.4433  159.4497 C.ar    1  UNL1        0.0145
     18 C         142.4814  140.2686  158.6758 C.ar    1  UNL1        0.0385
     19 C         141.0131  140.1407  158.9543 C.ar    1  UNL1        0.1499
     20 O         140.0282  140.9661  158.1804 O.2     1  UNL1       -0.4210
     21 C         138.9544  139.5975  167.1372 C.3     1  UNL1        0.0992
     22 C         140.1423  140.3638  167.6390 C.ar    1  UNL1       -0.0029
     23 C         141.4138  140.3818  166.8433 C.ar    1  UNL1        0.0004
     24 C         142.6017  141.1480  167.3450 C.ar    1  UNL1        0.0399
     25 C         142.5181  141.8962  168.6424 C.ar    1  UNL1        0.1764
     26 C         141.2467  141.8782  169.4380 C.ar    1  UNL1        0.1762
     27 C         140.0588  141.1120  168.9363 C.ar    1  UNL1        0.0373
     28 O         141.4602  142.7042  170.6718 O.3     1  UNL1       -0.4346
     29 C         142.8636  143.2327  170.6386 C.3     1  UNL1        0.4294
     30 O         143.5174  142.7334  169.3844 O.3     1  UNL1       -0.4346
@<TRIPOS>BOND
     1     9    10    2
     2    10    11   ar
     3    11    12   ar
     4    12     7    1
     5     7     1    1
     6     1     2    1
     7     2     3    1
     8     3     4    1
     9     4    21    1
    10    21    22    1
    11    22    23   ar
    12    23    24   ar
    13    24    25   ar
    14    25    26   ar
    15    26    27   ar
    16    26    28    1
    17    28    29    1
    18    29    30    1
    19     4     5    1
    20     5     6    1
    21    12    13   ar
    22    13    14   ar
    23    14    15   ar
    24    15    16    1
    25    15    17   ar
    26    17    18   ar
    27    18    19   ar
    28    19    20   ar
    29    20    10   ar
    30     6     1    1
    31    19    13   ar
    32    27    22   ar
    33    30    25    1
    34     7     8    1
@<TRIPOS>MOLECULE
*****
 30 34 0 0 0
SMALL
GASTEIGER

@<TRIPOS>ATOM
      1 C         139.0340  138.8921  161.8511 C.3     1  UNL1        0.0718
      2 C         139.2120  137.6911  162.7320 C.3     1  UNL1        0.0368
      3 C         138.9511  137.7964  164.2054 C.3     1  UNL1        0.0741
      4 N         138.5122  139.1027  164.7978 N.3     1  UNL1       -0.2688
      5 C         138.3342  140.3036  163.9170 C.3     1  UNL1        0.0741
      6 C         138.5951  140.1983  162.4435 C.3     1  UNL1        0.0368
      7 N         139.2949  138.7867  160.3777 N.pl3   1  UNL1       -0.3337
      8 H         138.5411  138.7259  159.7474 H       1  UNL1        0.1468
      9 O         144.3656  139.6360  161.1306 O.2     1  UNL1       -0.2444
     10 C         143.2397  139.1987  160.2410 C.ar    1  UNL1        0.3472
     11 C         141.8303  139.2114  160.7541 C.ar    1  UNL1        0.0966
     12 C         140.7044  138.7741  159.8647 C.ar    1  UNL1        0.0541
     13 C         140.9880  138.3241  158.4621 C.ar    1  UNL1        0.0488
     14 C         139.8621  137.8868  157.5726 C.ar    1  UNL1        0.0157
     15 C         140.1457  137.4368  156.1701 C.ar    1  UNL1        0.0579
     16 CL        139.0198  136.9995  155.2806 Cl      1  UNL1       -0.0822
     17 C         141.5552  137.4241  155.6571 C.ar    1  UNL1        0.0145
     18 C         142.6810  137.8614  156.5465 C.ar    1  UNL1        0.0385
     19 C         142.3974  138.3114  157.9490 C.ar    1  UNL1        0.1499
     20 O         143.5233  138.7487  158.8385 O.2     1  UNL1       -0.4210
     21 C         138.2513  139.2080  166.2712 C.3     1  UNL1        0.0992
     22 C         139.3461  139.6485  167.1972 C.ar    1  UNL1       -0.0029
     23 C         140.7533  139.7679  166.6915 C.ar    1  UNL1        0.0004
     24 C         141.8481  140.2083  167.6174 C.ar    1  UNL1        0.0399
     25 C         141.5358  140.5294  169.0490 C.ar    1  UNL1        0.1764
     26 C         140.1286  140.4100  169.5546 C.ar    1  UNL1        0.1762
     27 C         139.0338  139.9696  168.6287 C.ar    1  UNL1        0.0373
     28 O         140.1235  140.7913  171.0053 O.3     1  UNL1       -0.4346
     29 C         141.5274  141.1463  171.3963 C.3     1  UNL1        0.4294
     30 O         142.4003  140.9844  170.1872 O.3     1  UNL1       -0.4346
@<TRIPOS>BOND
     1     9    10    2
     2    10    11   ar
     3    11    12   ar
     4    12     7    1
     5     7     1    1
     6     1     2    1
     7     2     3    1
     8     3     4    1
     9     4    21    1
    10    21    22    1
    11    22    23   ar
    12    23    24   ar
    13    24    25   ar
    14    25    26   ar
    15    26    27   ar
    16    26    28    1
    17    28    29    1
    18    29    30    1
    19     4     5    1
    20     5     6    1
    21    12    13   ar
    22    13    14   ar
    23    14    15   ar
    24    15    16    1
    25    15    17   ar
    26    17    18   ar
    27    18    19   ar
    28    19    20   ar
    29    20    10   ar
    30     6     1    1
    31    19    13   ar
    32    27    22   ar
    33    30    25    1
    34     7     8    1
@<TRIPOS>MOLECULE
*****
 30 34 0 0 0
SMALL
GASTEIGER

@<TRIPOS>ATOM
      1 C         138.4557  139.7485  159.9487 C.3     1  UNL1        0.0718
      2 C         138.2840  140.2920  158.5612 C.3     1  UNL1        0.0368
      3 C         139.2487  139.9054  157.4796 C.3     1  UNL1        0.0741
      4 N         140.3851  138.9753  157.7854 N.3     1  UNL1       -0.2688
      5 C         140.5568  138.4318  159.1729 C.3     1  UNL1        0.0741
      6 C         139.5921  138.8184  160.2546 C.3     1  UNL1        0.0368
      7 N         137.4911  140.1352  161.0303 N.pl3   1  UNL1       -0.3337
      8 H         136.5941  139.7302  161.0578 H       1  UNL1        0.1468
      9 O         138.2630  145.0709  162.4597 O.2     1  UNL1       -0.2444
     10 C         138.2789  143.6066  162.7849 C.ar    1  UNL1        0.3472
     11 C         137.8770  142.6030  161.7450 C.ar    1  UNL1        0.0966
     12 C         137.8930  141.1388  162.0702 C.ar    1  UNL1        0.0541
     13 C         138.3109  140.6781  163.4352 C.ar    1  UNL1        0.0488
     14 C         138.3268  139.2139  163.7603 C.ar    1  UNL1        0.0157
     15 C         138.7447  138.7532  165.1253 C.ar    1  UNL1        0.0579
     16 CL        138.7606  137.2889  165.4505 Cl      1  UNL1       -0.0822
     17 C         139.1466  139.7568  166.1651 C.ar    1  UNL1        0.0145
     18 C         139.1306  141.2211  165.8400 C.ar    1  UNL1        0.0385
     19 C         138.7128  141.6817  164.4750 C.ar    1  UNL1        0.1499
     20 O         138.6968  143.1460  164.1498 O.2     1  UNL1       -0.4210
     21 C         141.3497  138.5886  156.7038 C.3     1  UNL1        0.0992
     22 C         141.6380  137.1407  156.4384 C.ar    1  UNL1       -0.0029
     23 C         140.7940  136.3744  155.4634 C.ar    1  UNL1        0.0004
     24 C         141.0823  134.9266  155.1980 C.ar    1  UNL1        0.0399
     25 C         142.2145  134.2449  155.9075 C.ar    1  UNL1        0.1764
     26 C         143.0585  135.0112  156.8824 C.ar    1  UNL1        0.1762
     27 C         142.7702  136.4591  157.1479 C.ar    1  UNL1        0.0373
     28 O         144.0992  134.0786  157.4275 O.3     1  UNL1       -0.4346
     29 C         143.8985  132.7360  156.7895 C.3     1  UNL1        0.4294
     30 O         142.7337  132.8388  155.8500 O.3     1  UNL1       -0.4346
@<TRIPOS>BOND
     1     9    10    2
     2    10    11   ar
     3    11    12   ar
     4    12     7    1
     5     7     1    1
     6     1     2    1
     7     2     3    1
     8     3     4    1
     9     4    21    1
    10    21    22    1
    11    22    23   ar
    12    23    24   ar
    13    24    25   ar
    14    25    26   ar
    15    26    27   ar
    16    26    28    1
    17    28    29    1
    18    29    30    1
    19     4     5    1
    20     5     6    1
    21    12    13   ar
    22    13    14   ar
    23    14    15   ar
    24    15    16    1
    25    15    17   ar
    26    17    18   ar
    27    18    19   ar
    28    19    20   ar
    29    20    10   ar
    30     6     1    1
    31    19    13   ar
    32    27    22   ar
    33    30    25    1
    34     7     8    1
@<TRIPOS>MOLECULE
*****
 30 34 0 0 0
SMALL
GASTEIGER

@<TRIPOS>ATOM
      1 C         141.4302  141.5798  164.4236 C.3     1  UNL1        0.0718
      2 C         142.1434  142.8885  164.5937 C.3     1  UNL1        0.0368
      3 C         141.8673  144.0212  163.6500 C.3     1  UNL1        0.0741
      4 N         140.8781  143.8455  162.5362 N.3     1  UNL1       -0.2688
      5 C         140.1649  142.5369  162.3661 C.3     1  UNL1        0.0741
      6 C         140.4409  141.4040  163.3098 C.3     1  UNL1        0.0368
      7 N         141.7062  140.4470  165.3673 N.pl3   1  UNL1       -0.3337
      8 H         142.5114  139.8929  165.2490 H       1  UNL1        0.1468
      9 O         137.2164  138.4569  167.0644 O.2     1  UNL1       -0.2444
     10 C         138.5107  139.1633  167.3397 C.ar    1  UNL1        0.3472
     11 C         139.4613  139.4520  166.2159 C.ar    1  UNL1        0.0966
     12 C         140.7556  140.1584  166.4911 C.ar    1  UNL1        0.0541
     13 C         141.0993  140.5763  167.8902 C.ar    1  UNL1        0.0488
     14 C         142.3935  141.2827  168.1654 C.ar    1  UNL1        0.0157
     15 C         142.7371  141.7005  169.5644 C.ar    1  UNL1        0.0579
     16 CL        144.0315  142.4070  169.8397 Cl      1  UNL1       -0.0822
     17 C         141.7865  141.4119  170.6882 C.ar    1  UNL1        0.0145
     18 C         140.4922  140.7055  170.4130 C.ar    1  UNL1        0.0385
     19 C         140.1486  140.2876  169.0140 C.ar    1  UNL1        0.1499
     20 O         138.8543  139.5812  168.7387 O.2     1  UNL1       -0.4210
     21 C         140.6020  144.9782  161.5926 C.3     1  UNL1        0.0992
     22 C         141.0665  144.8982  160.1685 C.ar    1  UNL1       -0.0029
     23 C         142.2286  144.0216  159.8068 C.ar    1  UNL1        0.0004
     24 C         142.6931  143.9416  158.3828 C.ar    1  UNL1        0.0399
     25 C         141.9954  144.7382  157.3205 C.ar    1  UNL1        0.1764
     26 C         140.8332  145.6149  157.6822 C.ar    1  UNL1        0.1762
     27 C         140.3688  145.6949  159.1062 C.ar    1  UNL1        0.0373
     28 O         140.3460  146.2793  156.4287 O.3     1  UNL1       -0.4346
     29 C         141.2071  145.8132  155.2923 C.3     1  UNL1        0.4294
     30 O         142.2264  144.8608  155.8435 O.3     1  UNL1       -0.4346
@<TRIPOS>BOND
     1     9    10    2
     2    10    11   ar
     3    11    12   ar
     4    12     7    1
     5     7     1    1
     6     1     2    1
     7     2     3    1
     8     3     4    1
     9     4    21    1
    10    21    22    1
    11    22    23   ar
    12    23    24   ar
    13    24    25   ar
    14    25    26   ar
    15    26    27   ar
    16    26    28    1
    17    28    29    1
    18    29    30    1
    19     4     5    1
    20     5     6    1
    21    12    13   ar
    22    13    14   ar
    23    14    15   ar
    24    15    16    1
    25    15    17   ar
    26    17    18   ar
    27    18    19   ar
    28    19    20   ar
    29    20    10   ar
    30     6     1    1
    31    19    13   ar
    32    27    22   ar
    33    30    25    1
    34     7     8    1
@<TRIPOS>MOLECULE
*****
 30 34 0 0 0
SMALL
GASTEIGER

@<TRIPOS>ATOM
      1 C         141.9591  137.9803  162.5490 C.3     1  UNL1        0.0718
      2 C         140.5536  138.3722  162.2011 C.3     1  UNL1        0.0368
      3 C         139.6061  138.8033  163.2811 C.3     1  UNL1        0.0741
      4 N         140.0641  138.8426  164.7089 N.3     1  UNL1       -0.2688
      5 C         141.4695  138.4507  165.0568 C.3     1  UNL1        0.0741
      6 C         142.4171  138.0196  163.9768 C.3     1  UNL1        0.0368
      7 N         142.9066  137.5492  161.4690 N.pl3   1  UNL1       -0.3337
      8 H         143.4316  136.7232  161.5757 H       1  UNL1        0.1468
      9 O         142.3158  138.1053  156.3366 O.2     1  UNL1       -0.2444
     10 C         142.7588  138.6545  157.6603 C.ar    1  UNL1        0.3472
     11 C         142.6112  137.8273  158.9029 C.ar    1  UNL1        0.0966
     12 C         143.0541  138.3764  160.2265 C.ar    1  UNL1        0.0541
     13 C         143.6447  139.7530  160.3077 C.ar    1  UNL1        0.0488
     14 C         144.0876  140.3021  161.6314 C.ar    1  UNL1        0.0157
     15 C         144.6781  141.6786  161.7126 C.ar    1  UNL1        0.0579
     16 CL        145.1211  142.2278  163.0363 Cl      1  UNL1       -0.0822
     17 C         144.8257  142.5059  160.4701 C.ar    1  UNL1        0.0145
     18 C         144.3827  141.9567  159.1464 C.ar    1  UNL1        0.0385
     19 C         143.7922  140.5802  159.0652 C.ar    1  UNL1        0.1499
     20 O         143.3493  140.0310  157.7415 O.2     1  UNL1       -0.4210
     21 C         139.1166  139.2737  165.7889 C.3     1  UNL1        0.0992
     22 C         139.5526  140.2816  166.8108 C.ar    1  UNL1       -0.0029
     23 C         140.0501  141.6270  166.3724 C.ar    1  UNL1        0.0004
     24 C         140.4861  142.6349  167.3942 C.ar    1  UNL1        0.0399
     25 C         140.4245  142.2973  168.8544 C.ar    1  UNL1        0.1764
     26 C         139.9270  140.9518  169.2928 C.ar    1  UNL1        0.1762
     27 C         139.4910  139.9440  168.2710 C.ar    1  UNL1        0.0373
     28 O         139.9788  140.9041  170.7911 O.3     1  UNL1       -0.4346
     29 C         140.5084  142.2201  171.2788 C.3     1  UNL1        0.4294
     30 O         140.7839  143.0811  170.0818 O.3     1  UNL1       -0.4346
@<TRIPOS>BOND
     1     9    10    2
     2    10    11   ar
     3    11    12   ar
     4    12     7    1
     5     7     1    1
     6     1     2    1
     7     2     3    1
     8     3     4    1
     9     4    21    1
    10    21    22    1
    11    22    23   ar
    12    23    24   ar
    13    24    25   ar
    14    25    26   ar
    15    26    27   ar
    16    26    28    1
    17    28    29    1
    18    29    30    1
    19     4     5    1
    20     5     6    1
    21    12    13   ar
    22    13    14   ar
    23    14    15   ar
    24    15    16    1
    25    15    17   ar
    26    17    18   ar
    27    18    19   ar
    28    19    20   ar
    29    20    10   ar
    30     6     1    1
    31    19    13   ar
    32    27    22   ar
    33    30    25    1
    34     7     8    1
@<TRIPOS>MOLECULE
*****
 30 34 0 0 0
SMALL
GASTEIGER

@<TRIPOS>ATOM
      1 C         141.1780  139.4365  159.6544 C.3     1  UNL1        0.0718
      2 C         140.0120  138.7708  158.9856 C.3     1  UNL1        0.0368
      3 C         140.2307  137.9171  157.7718 C.3     1  UNL1        0.0741
      4 N         141.6155  137.7290  157.2268 N.3     1  UNL1       -0.2688
      5 C         142.7815  138.3946  157.8955 C.3     1  UNL1        0.0741
      6 C         142.5628  139.2484  159.1094 C.3     1  UNL1        0.0368
      7 N         140.9593  140.2902  160.8682 N.pl3   1  UNL1       -0.3337
      8 H         140.3232  140.0041  161.5630 H       1  UNL1        0.1468
      9 O         141.5629  145.3152  159.6912 O.2     1  UNL1       -0.2444
     10 C         142.0116  144.0921  160.4349 C.ar    1  UNL1        0.3472
     11 C         141.2611  142.8026  160.2797 C.ar    1  UNL1        0.0966
     12 C         141.7097  141.5796  161.0233 C.ar    1  UNL1        0.0541
     13 C         142.9088  141.6461  161.9221 C.ar    1  UNL1        0.0488
     14 C         143.3575  140.4231  162.6657 C.ar    1  UNL1        0.0157
     15 C         144.5565  140.4896  163.5645 C.ar    1  UNL1        0.0579
     16 CL        145.0052  139.2666  164.3081 Cl      1  UNL1       -0.0822
     17 C         145.3070  141.7791  163.7196 C.ar    1  UNL1        0.0145
     18 C         144.8583  143.0021  162.9760 C.ar    1  UNL1        0.0385
     19 C         143.6593  142.9356  162.0773 C.ar    1  UNL1        0.1499
     20 O         143.2106  144.1586  161.3336 O.2     1  UNL1       -0.4210
     21 C         141.8342  136.8753  156.0130 C.3     1  UNL1        0.0992
     22 C         142.1975  135.4283  156.1693 C.ar    1  UNL1       -0.0029
     23 C         141.4174  134.3760  155.4384 C.ar    1  UNL1        0.0004
     24 C         141.7806  132.9291  155.5947 C.ar    1  UNL1        0.0399
     25 C         142.9239  132.5345  156.4818 C.ar    1  UNL1        0.1764
     26 C         143.7039  133.5867  157.2127 C.ar    1  UNL1        0.1762
     27 C         143.3408  135.0336  157.0565 C.ar    1  UNL1        0.0373
     28 O         144.7722  132.9006  158.0116 O.3     1  UNL1       -0.4346
     29 C         144.6524  131.4244  157.7744 C.3     1  UNL1        0.4294
     30 O         143.5100  131.1981  156.8290 O.3     1  UNL1       -0.4346
@<TRIPOS>BOND
     1     9    10    2
     2    10    11   ar
     3    11    12   ar
     4    12     7    1
     5     7     1    1
     6     1     2    1
     7     2     3    1
     8     3     4    1
     9     4    21    1
    10    21    22    1
    11    22    23   ar
    12    23    24   ar
    13    24    25   ar
    14    25    26   ar
    15    26    27   ar
    16    26    28    1
    17    28    29    1
    18    29    30    1
    19     4     5    1
    20     5     6    1
    21    12    13   ar
    22    13    14   ar
    23    14    15   ar
    24    15    16    1
    25    15    17   ar
    26    17    18   ar
    27    18    19   ar
    28    19    20   ar
    29    20    10   ar
    30     6     1    1
    31    19    13   ar
    32    27    22   ar
    33    30    25    1
    34     7     8    1
@<TRIPOS>MOLECULE
*****
 30 34 0 0 0
SMALL
GASTEIGER

@<TRIPOS>ATOM
      1 C         141.6370  140.0401  162.8763 C.3     1  UNL1        0.0718
      2 C         140.7549  139.2101  163.7613 C.3     1  UNL1        0.0368
      3 C         141.1984  138.8666  165.1525 C.3     1  UNL1        0.0741
      4 N         142.5239  139.3531  165.6587 N.3     1  UNL1       -0.2688
      5 C         143.4060  140.1831  164.7739 C.3     1  UNL1        0.0741
      6 C         142.9625  140.5266  163.3826 C.3     1  UNL1        0.0368
      7 N         141.1936  140.3835  161.4852 N.pl3   1  UNL1       -0.3337
      8 H         140.6564  139.7414  160.9672 H       1  UNL1        0.1468
      9 O         144.1348  143.1769  158.2376 O.2     1  UNL1       -0.2444
     10 C         143.0392  143.1020  159.2595 C.ar    1  UNL1        0.3472
     11 C         142.6642  141.7802  159.8614 C.ar    1  UNL1        0.0966
     12 C         141.5687  141.7053  160.8833 C.ar    1  UNL1        0.0541
     13 C         140.8482  142.9521  161.3033 C.ar    1  UNL1        0.0488
     14 C         139.7527  142.8772  162.3251 C.ar    1  UNL1        0.0157
     15 C         139.0323  144.1240  162.7451 C.ar    1  UNL1        0.0579
     16 CL        137.9367  144.0491  163.7670 Cl      1  UNL1       -0.0822
     17 C         139.4073  145.4458  162.1431 C.ar    1  UNL1        0.0145
     18 C         140.5028  145.5207  161.1213 C.ar    1  UNL1        0.0385
     19 C         141.2232  144.2739  160.7014 C.ar    1  UNL1        0.1499
     20 O         142.3188  144.3488  159.6794 O.2     1  UNL1       -0.4210
     21 C         142.9673  139.0097  167.0499 C.3     1  UNL1        0.0992
     22 C         142.3706  139.7252  168.2255 C.ar    1  UNL1       -0.0029
     23 C         142.5588  139.1797  169.6100 C.ar    1  UNL1        0.0004
     24 C         141.9620  139.8952  170.7856 C.ar    1  UNL1        0.0399
     25 C         141.1771  141.1562  170.5766 C.ar    1  UNL1        0.1764
     26 C         140.9890  141.7018  169.1920 C.ar    1  UNL1        0.1762
     27 C         141.5857  140.9863  168.0165 C.ar    1  UNL1        0.0373
     28 O         140.1721  142.9556  169.2949 O.3     1  UNL1       -0.4346
     29 C         139.8555  143.1851  170.7431 C.3     1  UNL1        0.4294
     30 O         140.4766  142.0730  171.5351 O.3     1  UNL1       -0.4346
@<TRIPOS>BOND
     1     9    10    2
     2    10    11   ar
     3    11    12   ar
     4    12     7    1
     5     7     1    1
     6     1     2    1
     7     2     3    1
     8     3     4    1
     9     4    21    1
    10    21    22    1
    11    22    23   ar
    12    23    24   ar
    13    24    25   ar
    14    25    26   ar
    15    26    27   ar
    16    26    28    1
    17    28    29    1
    18    29    30    1
    19     4     5    1
    20     5     6    1
    21    12    13   ar
    22    13    14   ar
    23    14    15   ar
    24    15    16    1
    25    15    17   ar
    26    17    18   ar
    27    18    19   ar
    28    19    20   ar
    29    20    10   ar
    30     6     1    1
    31    19    13   ar
    32    27    22   ar
    33    30    25    1
    34     7     8    1
@<TRIPOS>MOLECULE
*****
 30 34 0 0 0
SMALL
GASTEIGER

@<TRIPOS>ATOM
      1 C         142.1445  142.2073  165.5326 C.3     1  UNL1        0.0718
      2 C         143.1038  142.1911  164.3795 C.3     1  UNL1        0.0368
      3 C         142.9077  143.1316  163.2276 C.3     1  UNL1        0.0741
      4 N         141.7525  144.0884  163.2287 N.3     1  UNL1       -0.2688
      5 C         140.7932  144.1046  164.3817 C.3     1  UNL1        0.0741
      6 C         140.9892  143.1641  165.5337 C.3     1  UNL1        0.0368
      7 N         142.3405  141.2668  166.6846 N.pl3   1  UNL1       -0.3337
      8 H         143.2097  140.8235  166.8157 H       1  UNL1        0.1468
      9 O         140.0394  142.0771  171.2724 O.2     1  UNL1       -0.2444
     10 C         140.0616  141.4068  169.9306 C.ar    1  UNL1        0.3472
     11 C         141.1899  141.6719  168.9785 C.ar    1  UNL1        0.0966
     12 C         141.2122  141.0017  167.6367 C.ar    1  UNL1        0.0541
     13 C         140.1061  140.0664  167.2471 C.ar    1  UNL1        0.0488
     14 C         140.1283  139.3962  165.9054 C.ar    1  UNL1        0.0157
     15 C         139.0223  138.4609  165.5158 C.ar    1  UNL1        0.0579
     16 CL        139.0445  137.7906  164.1741 Cl      1  UNL1       -0.0822
     17 C         137.8940  138.1958  166.4680 C.ar    1  UNL1        0.0145
     18 C         137.8717  138.8660  167.8098 C.ar    1  UNL1        0.0385
     19 C         138.9778  139.8013  168.1993 C.ar    1  UNL1        0.1499
     20 O         138.9556  140.4715  169.5411 O.2     1  UNL1       -0.4210
     21 C         141.5565  145.0289  162.0768 C.3     1  UNL1        0.0992
     22 C         140.8727  144.5542  160.8289 C.ar    1  UNL1       -0.0029
     23 C         141.0769  145.2876  159.5365 C.ar    1  UNL1        0.0004
     24 C         140.3931  144.8129  158.2886 C.ar    1  UNL1        0.0399
     25 C         139.5052  143.6048  158.3332 C.ar    1  UNL1        0.1764
     26 C         139.3011  142.8714  159.6256 C.ar    1  UNL1        0.1762
     27 C         139.9848  143.3460  160.8734 C.ar    1  UNL1        0.0373
     28 O         138.3750  141.7207  159.3642 O.3     1  UNL1       -0.4346
     29 C         138.0068  141.7430  157.9103 C.3     1  UNL1        0.4294
     30 O         138.7053  142.9074  157.2731 O.3     1  UNL1       -0.4346
@<TRIPOS>BOND
     1     9    10    2
     2    10    11   ar
     3    11    12   ar
     4    12     7    1
     5     7     1    1
     6     1     2    1
     7     2     3    1
     8     3     4    1
     9     4    21    1
    10    21    22    1
    11    22    23   ar
    12    23    24   ar
    13    24    25   ar
    14    25    26   ar
    15    26    27   ar
    16    26    28    1
    17    28    29    1
    18    29    30    1
    19     4     5    1
    20     5     6    1
    21    12    13   ar
    22    13    14   ar
    23    14    15   ar
    24    15    16    1
    25    15    17   ar
    26    17    18   ar
    27    18    19   ar
    28    19    20   ar
    29    20    10   ar
    30     6     1    1
    31    19    13   ar
    32    27    22   ar
    33    30    25    1
    34     7     8    1
@<TRIPOS>MOLECULE
*****
 30 34 0 0 0
SMALL
GASTEIGER

@<TRIPOS>ATOM
      1 C         141.6603  139.6745  159.1088 C.3     1  UNL1        0.0718
      2 C         140.4278  138.8907  158.7667 C.3     1  UNL1        0.0368
      3 C         140.4608  137.8913  157.6487 C.3     1  UNL1        0.0741
      4 N         141.7262  137.6756  156.8726 N.3     1  UNL1       -0.2688
      5 C         142.9586  138.4593  157.2146 C.3     1  UNL1        0.0741
      6 C         142.9256  139.4588  158.3327 C.3     1  UNL1        0.0368
      7 N         141.6273  140.6739  160.2268 N.pl3   1  UNL1       -0.3337
      8 H         141.0425  141.4634  160.1642 H       1  UNL1        0.1468
      9 O         146.0156  141.6166  162.8448 O.2     1  UNL1       -0.2444
     10 C         144.6794  140.9417  162.7493 C.ar    1  UNL1        0.3472
     11 C         143.8214  141.1452  161.5358 C.ar    1  UNL1        0.0966
     12 C         142.4853  140.4703  161.4403 C.ar    1  UNL1        0.0541
     13 C         142.0070  139.5919  162.5582 C.ar    1  UNL1        0.0488
     14 C         140.6709  138.9170  162.4626 C.ar    1  UNL1        0.0157
     15 C         140.1927  138.0386  163.5805 C.ar    1  UNL1        0.0579
     16 CL        138.8565  137.3637  163.4850 Cl      1  UNL1       -0.0822
     17 C         141.0507  137.8351  164.7939 C.ar    1  UNL1        0.0145
     18 C         142.3868  138.5100  164.8895 C.ar    1  UNL1        0.0385
     19 C         142.8650  139.3884  163.7716 C.ar    1  UNL1        0.1499
     20 O         144.2012  140.0633  163.8671 O.2     1  UNL1       -0.4210
     21 C         141.7592  136.6763  155.7545 C.3     1  UNL1        0.0992
     22 C         142.1889  135.2644  156.0230 C.ar    1  UNL1       -0.0029
     23 C         141.4544  134.1227  155.3850 C.ar    1  UNL1        0.0004
     24 C         141.8842  132.7109  155.6534 C.ar    1  UNL1        0.0399
     25 C         143.0484  132.4408  156.5598 C.ar    1  UNL1        0.1764
     26 C         143.7829  133.5825  157.1978 C.ar    1  UNL1        0.1762
     27 C         143.3532  134.9943  156.9294 C.ar    1  UNL1        0.0373
     28 O         144.8851  133.0117  158.0400 O.3     1  UNL1       -0.4346
     29 C         144.8319  131.5173  157.9226 C.3     1  UNL1        0.4294
     30 O         143.6967  131.1644  157.0078 O.3     1  UNL1       -0.4346
@<TRIPOS>BOND
     1     9    10    2
     2    10    11   ar
     3    11    12   ar
     4    12     7    1
     5     7     1    1
     6     1     2    1
     7     2     3    1
     8     3     4    1
     9     4    21    1
    10    21    22    1
    11    22    23   ar
    12    23    24   ar
    13    24    25   ar
    14    25    26   ar
    15    26    27   ar
    16    26    28    1
    17    28    29    1
    18    29    30    1
    19     4     5    1
    20     5     6    1
    21    12    13   ar
    22    13    14   ar
    23    14    15   ar
    24    15    16    1
    25    15    17   ar
    26    17    18   ar
    27    18    19   ar
    28    19    20   ar
    29    20    10   ar
    30     6     1    1
    31    19    13   ar
    32    27    22   ar
    33    30    25    1
    34     7     8    1
