@<TRIPOS>MOLECULE
*****
 31 34 0 0 0
SMALL
GASTEIGER

@<TRIPOS>ATOM
      1 C         142.6221  139.6146  162.8606 C.ar    1  UNL1        0.0138
      2 C         141.7004  140.6672  163.4014 C.ar    1  UNL1        0.0001
      3 C         141.5222  140.8186  164.8830 C.ar    1  UNL1        0.0190
      4 C         142.2657  139.9174  165.8238 C.ar    1  UNL1        0.0843
      5 C         143.1874  138.8648  165.2830 C.ar    1  UNL1        0.0384
      6 C         143.7826  138.1279  166.4460 C.ar    1  UNL1        0.1220
      7 N         143.2287  138.7251  167.7057 N.ar    1  UNL1       -0.1635
      8 N         142.2913  139.8311  167.3212 N.ar    1  UNL1       -0.2296
      9 C         143.3656  138.7134  163.8014 C.ar    1  UNL1        0.0017
     10 C         141.5155  140.6984  168.2677 C.ar    1  UNL1        0.0829
     11 C         141.9780  142.0962  168.5544 C.ar    1  UNL1        0.0215
     12 C         141.2022  142.9635  169.5009 C.ar    1  UNL1        0.0312
     13 C         139.9640  142.4330  170.1608 C.ar    1  UNL1        0.1402
     14 F         139.1883  143.3003  171.1073 F       1  UNL1       -0.2042
     15 C         139.5015  141.0351  169.8741 C.ar    1  UNL1        0.0312
     16 C         140.2773  140.1679  168.9275 C.ar    1  UNL1        0.0215
     17 O         144.2622  139.7662  161.5237 O.3     1  UNL1       -0.3715
     18 C         142.8003  139.4631  161.3789 C.3     1  UNL1        0.2136
     19 H         144.5986  139.3558  162.3357 H       1  UNL1        0.2114
     20 C         142.9785  139.3116  159.8972 C.ar    1  UNL1        0.0147
     21 C         143.5666  140.4336  159.0939 C.ar    1  UNL1        0.0009
     22 C         143.7448  140.2821  157.6122 C.ar    1  UNL1        0.0303
     23 C         143.3348  139.0086  156.9339 C.ar    1  UNL1        0.1506
     24 F         143.5130  138.8572  155.4523 F       1  UNL1       -0.2033
     25 C         142.7468  137.8866  157.7372 C.ar    1  UNL1        0.0848
     26 CL        142.3369  136.6132  157.0588 Cl      1  UNL1       -0.0799
     27 C         142.5686  138.0381  159.2188 C.ar    1  UNL1        0.0122
     28 C         141.3385  139.1600  161.2340 C.3     1  UNL1        0.4267
     29 F         139.8765  138.8569  161.0892 F       1  UNL1       -0.1670
     30 F         140.7879  140.3596  160.5213 F       1  UNL1       -0.1670
     31 F         141.1814  137.8138  161.8767 F       1  UNL1       -0.1670
@<TRIPOS>BOND
     1    17    18    1
     2    18    20    1
     3    20    21   ar
     4    21    22   ar
     5    22    23   ar
     6    23    24    1
     7    23    25   ar
     8    25    26    1
     9    25    27   ar
    10    18     1    1
    11     1     2   ar
    12     2     3   ar
    13     3     4   ar
    14     4     5   ar
    15     5     6   ar
    16     6     7   ar
    17     7     8   ar
    18     8    10    1
    19    10    11   ar
    20    11    12   ar
    21    12    13   ar
    22    13    14    1
    23    13    15   ar
    24    15    16   ar
    25     5     9   ar
    26    18    28    1
    27    28    29    1
    28    28    30    1
    29    28    31    1
    30    27    20   ar
    31     9     1   ar
    32     8     4   ar
    33    16    10   ar
    34    17    19    1
@<TRIPOS>MOLECULE
*****
 31 34 0 0 0
SMALL
GASTEIGER

@<TRIPOS>ATOM
      1 C         141.5868  143.0183  163.9684 C.ar    1  UNL1        0.0138
      2 C         142.1220  142.4178  162.7024 C.ar    1  UNL1        0.0001
      3 C         141.7982  143.0457  161.3792 C.ar    1  UNL1        0.0190
      4 C         140.9393  144.2741  161.3221 C.ar    1  UNL1        0.0843
      5 C         140.4041  144.8746  162.5881 C.ar    1  UNL1        0.0384
      6 C         139.5893  146.0794  162.2214 C.ar    1  UNL1        0.1220
      7 N         139.6209  146.2236  160.7287 N.ar    1  UNL1       -0.1635
      8 N         140.4552  145.1078  160.1728 N.ar    1  UNL1       -0.2296
      9 C         140.7279  144.2467  163.9113 C.ar    1  UNL1        0.0017
     10 C         140.7532  144.8679  158.7224 C.ar    1  UNL1        0.0829
     11 C         139.9829  143.8308  157.9601 C.ar    1  UNL1        0.0215
     12 C         140.2810  143.5910  156.5097 C.ar    1  UNL1        0.0312
     13 C         141.3492  144.3881  155.8217 C.ar    1  UNL1        0.1402
     14 F         141.6472  144.1482  154.3713 F       1  UNL1       -0.2042
     15 C         142.1195  145.4252  156.5841 C.ar    1  UNL1        0.0312
     16 C         141.8214  145.6650  158.0344 C.ar    1  UNL1        0.0215
     17 O         140.4460  142.2480  165.5826 O.3     1  UNL1       -0.3715
     18 C         141.9106  142.3904  165.2917 C.3     1  UNL1        0.2136
     19 H         139.9762  142.0105  164.7679 H       1  UNL1        0.2114
     20 C         142.2344  141.7625  166.6149 C.ar    1  UNL1        0.0147
     21 C         141.7400  140.3821  166.9311 C.ar    1  UNL1        0.0009
     22 C         142.0639  139.7542  168.2543 C.ar    1  UNL1        0.0303
     23 C         142.8821  140.5068  169.2614 C.ar    1  UNL1        0.1506
     24 F         143.2059  139.8789  170.5845 F       1  UNL1       -0.2033
     25 C         143.3765  141.8872  168.9452 C.ar    1  UNL1        0.0848
     26 CL        144.1947  142.6398  169.9522 Cl      1  UNL1       -0.0799
     27 C         143.0527  142.5151  167.6220 C.ar    1  UNL1        0.0122
     28 C         143.3752  142.5327  165.0008 C.3     1  UNL1        0.4267
     29 F         144.8399  142.6750  164.7100 F       1  UNL1       -0.1670
     30 F         143.6053  144.0149  165.0127 F       1  UNL1       -0.1670
     31 F         143.8540  141.1194  164.8481 F       1  UNL1       -0.1670
@<TRIPOS>BOND
     1    17    18    1
     2    18    20    1
     3    20    21   ar
     4    21    22   ar
     5    22    23   ar
     6    23    24    1
     7    23    25   ar
     8    25    26    1
     9    25    27   ar
    10    18     1    1
    11     1     2   ar
    12     2     3   ar
    13     3     4   ar
    14     4     5   ar
    15     5     6   ar
    16     6     7   ar
    17     7     8   ar
    18     8    10    1
    19    10    11   ar
    20    11    12   ar
    21    12    13   ar
    22    13    14    1
    23    13    15   ar
    24    15    16   ar
    25     5     9   ar
    26    18    28    1
    27    28    29    1
    28    28    30    1
    29    28    31    1
    30    27    20   ar
    31     9     1   ar
    32     8     4   ar
    33    16    10   ar
    34    17    19    1
@<TRIPOS>MOLECULE
*****
 31 34 0 0 0
SMALL
GASTEIGER

@<TRIPOS>ATOM
      1 C         141.5469  142.9533  163.9965 C.ar    1  UNL1        0.0138
      2 C         142.1418  142.4059  162.7331 C.ar    1  UNL1        0.0001
      3 C         141.8184  143.0431  161.4143 C.ar    1  UNL1        0.0190
      4 C         140.9001  144.2278  161.3589 C.ar    1  UNL1        0.0843
      5 C         140.3052  144.7753  162.6223 C.ar    1  UNL1        0.0384
      6 C         139.4395  145.9449  162.2582 C.ar    1  UNL1        0.1220
      7 N         139.4994  146.1203  160.7696 N.ar    1  UNL1       -0.1635
      8 N         140.4021  145.0591  160.2138 N.ar    1  UNL1       -0.2296
      9 C         140.6286  144.1381  163.9411 C.ar    1  UNL1        0.0017
     10 C         140.7464  144.8634  158.7671 C.ar    1  UNL1        0.0829
     11 C         140.1142  143.7469  157.9900 C.ar    1  UNL1        0.0215
     12 C         140.4586  143.5514  156.5433 C.ar    1  UNL1        0.0312
     13 C         141.4350  144.4722  155.8735 C.ar    1  UNL1        0.1402
     14 F         141.7793  144.2766  154.4268 F       1  UNL1       -0.2042
     15 C         142.0671  145.5887  156.6506 C.ar    1  UNL1        0.0312
     16 C         141.7228  145.7843  158.0973 C.ar    1  UNL1        0.0215
     17 O         143.3270  142.5970  165.0940 O.3     1  UNL1       -0.3715
     18 C         141.8703  142.3161  165.3154 C.3     1  UNL1        0.2136
     19 H         143.4282  143.4624  164.6676 H       1  UNL1        0.2114
     20 C         142.1937  141.6789  166.6342 C.ar    1  UNL1        0.0147
     21 C         141.7035  140.2942  166.9384 C.ar    1  UNL1        0.0009
     22 C         142.0269  139.6570  168.2573 C.ar    1  UNL1        0.0303
     23 C         142.8404  140.4044  169.2719 C.ar    1  UNL1        0.1506
     24 F         143.1638  139.7672  170.5908 F       1  UNL1       -0.2033
     25 C         143.3306  141.7891  168.9678 C.ar    1  UNL1        0.0848
     26 CL        144.1440  142.5365  169.9824 Cl      1  UNL1       -0.0799
     27 C         143.0072  142.4263  167.6489 C.ar    1  UNL1        0.0122
     28 C         140.4136  142.0351  165.5368 C.3     1  UNL1        0.4267
     29 F         138.9569  141.7542  165.7582 F       1  UNL1       -0.1670
     30 F         140.0854  140.9908  164.5114 F       1  UNL1       -0.1670
     31 F         140.0368  142.9435  166.6694 F       1  UNL1       -0.1670
@<TRIPOS>BOND
     1    17    18    1
     2    18    20    1
     3    20    21   ar
     4    21    22   ar
     5    22    23   ar
     6    23    24    1
     7    23    25   ar
     8    25    26    1
     9    25    27   ar
    10    18     1    1
    11     1     2   ar
    12     2     3   ar
    13     3     4   ar
    14     4     5   ar
    15     5     6   ar
    16     6     7   ar
    17     7     8   ar
    18     8    10    1
    19    10    11   ar
    20    11    12   ar
    21    12    13   ar
    22    13    14    1
    23    13    15   ar
    24    15    16   ar
    25     5     9   ar
    26    18    28    1
    27    28    29    1
    28    28    30    1
    29    28    31    1
    30    27    20   ar
    31     9     1   ar
    32     8     4   ar
    33    16    10   ar
    34    17    19    1
@<TRIPOS>MOLECULE
*****
 31 34 0 0 0
SMALL
GASTEIGER

@<TRIPOS>ATOM
      1 C         140.4421  142.6530  163.2174 C.ar    1  UNL1        0.0138
      2 C         139.2577  143.1266  162.4283 C.ar    1  UNL1        0.0001
      3 C         139.4402  143.6147  161.0217 C.ar    1  UNL1        0.0190
      4 C         140.8072  143.6292  160.4043 C.ar    1  UNL1        0.0843
      5 C         141.9916  143.1556  161.1935 C.ar    1  UNL1        0.0384
      6 C         143.2084  143.2852  160.3260 C.ar    1  UNL1        0.1220
      7 N         142.7760  143.8389  159.0007 N.ar    1  UNL1       -0.1635
      8 N         141.2920  144.0515  159.0491 N.ar    1  UNL1       -0.2296
      9 C         141.8090  142.6675  162.6000 C.ar    1  UNL1        0.0017
     10 C         140.4420  144.5916  157.9375 C.ar    1  UNL1        0.0829
     11 C         139.5910  143.6618  157.1243 C.ar    1  UNL1        0.0215
     12 C         138.7410  144.2020  156.0128 C.ar    1  UNL1        0.0312
     13 C         138.7419  145.6719  155.7143 C.ar    1  UNL1        0.1402
     14 F         137.8919  146.2121  154.6026 F       1  UNL1       -0.2042
     15 C         139.5929  146.6018  156.5274 C.ar    1  UNL1        0.0312
     16 C         140.4429  146.0616  157.6390 C.ar    1  UNL1        0.0215
     17 O         141.0337  140.9233  164.2937 O.3     1  UNL1       -0.3715
     18 C         140.2595  142.1649  164.6240 C.3     1  UNL1        0.2136
     19 H         141.7656  141.1476  163.6979 H       1  UNL1        0.2114
     20 C         140.0770  141.6768  166.0306 C.ar    1  UNL1        0.0147
     21 C         139.4402  140.3427  166.2849 C.ar    1  UNL1        0.0009
     22 C         139.2576  139.8547  167.6915 C.ar    1  UNL1        0.0303
     23 C         139.7119  140.7007  168.8438 C.ar    1  UNL1        0.1506
     24 F         139.5294  140.2127  170.2503 F       1  UNL1       -0.2033
     25 C         140.3488  142.0348  168.5895 C.ar    1  UNL1        0.0848
     26 CL        140.8031  142.8808  169.7418 Cl      1  UNL1       -0.0799
     27 C         140.5313  142.5229  167.1830 C.ar    1  UNL1        0.0122
     28 C         139.4854  143.4064  164.9544 C.3     1  UNL1        0.4267
     29 F         138.7111  144.6480  165.2847 F       1  UNL1       -0.1670
     30 F         140.5231  144.4894  164.9644 F       1  UNL1       -0.1670
     31 F         138.0729  142.9243  165.1042 F       1  UNL1       -0.1670
@<TRIPOS>BOND
     1    17    18    1
     2    18    20    1
     3    20    21   ar
     4    21    22   ar
     5    22    23   ar
     6    23    24    1
     7    23    25   ar
     8    25    26    1
     9    25    27   ar
    10    18     1    1
    11     1     2   ar
    12     2     3   ar
    13     3     4   ar
    14     4     5   ar
    15     5     6   ar
    16     6     7   ar
    17     7     8   ar
    18     8    10    1
    19    10    11   ar
    20    11    12   ar
    21    12    13   ar
    22    13    14    1
    23    13    15   ar
    24    15    16   ar
    25     5     9   ar
    26    18    28    1
    27    28    29    1
    28    28    30    1
    29    28    31    1
    30    27    20   ar
    31     9     1   ar
    32     8     4   ar
    33    16    10   ar
    34    17    19    1
@<TRIPOS>MOLECULE
*****
 31 34 0 0 0
SMALL
GASTEIGER

@<TRIPOS>ATOM
      1 C         141.7097  139.0711  163.0065 C.ar    1  UNL1        0.0138
      2 C         140.7495  140.0736  163.5749 C.ar    1  UNL1        0.0001
      3 C         140.7843  140.3989  165.0388 C.ar    1  UNL1        0.0190
      4 C         141.7792  139.7219  165.9342 C.ar    1  UNL1        0.0843
      5 C         142.7394  138.7195  165.3657 C.ar    1  UNL1        0.0384
      6 C         143.6014  138.2166  166.4855 C.ar    1  UNL1        0.1220
      7 N         143.1741  138.9083  167.7461 N.ar    1  UNL1       -0.1635
      8 N         142.0478  139.8386  167.4054 N.ar    1  UNL1       -0.2296
      9 C         142.7046  138.3941  163.9019 C.ar    1  UNL1        0.0017
     10 C         141.3183  140.7293  168.3669 C.ar    1  UNL1        0.0829
     11 C         140.0646  140.2458  169.0336 C.ar    1  UNL1        0.0215
     12 C         139.3352  141.1364  169.9951 C.ar    1  UNL1        0.0312
     13 C         139.8594  142.5106  170.2899 C.ar    1  UNL1        0.1402
     14 F         139.1299  143.4012  171.2514 F       1  UNL1       -0.2042
     15 C         141.1131  142.9941  169.6232 C.ar    1  UNL1        0.0312
     16 C         141.8425  142.1034  168.6617 C.ar    1  UNL1        0.0215
     17 O         140.7774  137.5773  161.8235 O.3     1  UNL1       -0.3715
     18 C         141.6750  138.7457  161.5426 C.3     1  UNL1        0.2136
     19 H         140.1497  137.8130  162.5245 H       1  UNL1        0.2114
     20 C         141.6403  138.4204  160.0787 C.ar    1  UNL1        0.0147
     21 C         142.7909  137.6972  159.4437 C.ar    1  UNL1        0.0009
     22 C         142.7562  137.3718  157.9798 C.ar    1  UNL1        0.0303
     23 C         141.5709  137.7696  157.1510 C.ar    1  UNL1        0.1506
     24 F         141.5363  137.4443  155.6871 F       1  UNL1       -0.2033
     25 C         140.4204  138.4928  157.7860 C.ar    1  UNL1        0.0848
     26 CL        139.2352  138.8906  156.9572 Cl      1  UNL1       -0.0799
     27 C         140.4551  138.8181  159.2498 C.ar    1  UNL1        0.0122
     28 C         142.5727  139.9141  161.2616 C.3     1  UNL1        0.4267
     29 F         143.4703  141.0826  160.9806 F       1  UNL1       -0.1670
     30 F         143.9494  139.3909  161.5459 F       1  UNL1       -0.1670
     31 F         141.6304  141.0030  160.8413 F       1  UNL1       -0.1670
@<TRIPOS>BOND
     1    17    18    1
     2    18    20    1
     3    20    21   ar
     4    21    22   ar
     5    22    23   ar
     6    23    24    1
     7    23    25   ar
     8    25    26    1
     9    25    27   ar
    10    18     1    1
    11     1     2   ar
    12     2     3   ar
    13     3     4   ar
    14     4     5   ar
    15     5     6   ar
    16     6     7   ar
    17     7     8   ar
    18     8    10    1
    19    10    11   ar
    20    11    12   ar
    21    12    13   ar
    22    13    14    1
    23    13    15   ar
    24    15    16   ar
    25     5     9   ar
    26    18    28    1
    27    28    29    1
    28    28    30    1
    29    28    31    1
    30    27    20   ar
    31     9     1   ar
    32     8     4   ar
    33    16    10   ar
    34    17    19    1
@<TRIPOS>MOLECULE
*****
 31 34 0 0 0
SMALL
GASTEIGER

@<TRIPOS>ATOM
      1 C         141.1696  142.1884  164.5616 C.ar    1  UNL1        0.0138
      2 C         142.1726  142.6772  163.5591 C.ar    1  UNL1        0.0001
      3 C         141.7185  143.1273  162.2022 C.ar    1  UNL1        0.0190
      4 C         140.2615  143.0885  161.8478 C.ar    1  UNL1        0.0843
      5 C         139.2585  142.5996  162.8503 C.ar    1  UNL1        0.0384
      6 C         137.8993  142.6744  162.2204 C.ar    1  UNL1        0.1220
      7 N         138.0621  143.2095  160.8285 N.ar    1  UNL1       -0.1635
      8 N         139.5221  143.4654  160.5982 N.ar    1  UNL1       -0.2296
      9 C         139.7126  142.1496  164.2072 C.ar    1  UNL1        0.0017
     10 C         140.1350  144.0037  159.3394 C.ar    1  UNL1        0.0829
     11 C         141.0423  145.1967  159.3977 C.ar    1  UNL1        0.0215
     12 C         141.6552  145.7350  158.1389 C.ar    1  UNL1        0.0312
     13 C         141.3609  145.0802  156.8219 C.ar    1  UNL1        0.1402
     14 F         141.9738  145.6184  155.5631 F       1  UNL1       -0.2042
     15 C         140.4536  143.8871  156.7636 C.ar    1  UNL1        0.0312
     16 C         139.8407  143.3489  158.0224 C.ar    1  UNL1        0.0215
     17 O         140.8625  142.8673  166.5478 O.3     1  UNL1       -0.3715
     18 C         141.6237  141.7383  165.9186 C.3     1  UNL1        0.2136
     19 H         140.0261  142.9971  166.0740 H       1  UNL1        0.2114
     20 C         142.0777  141.2882  167.2755 C.ar    1  UNL1        0.0147
     21 C         141.6365  139.9584  167.8111 C.ar    1  UNL1        0.0009
     22 C         142.0906  139.5083  169.1681 C.ar    1  UNL1        0.0303
     23 C         142.9858  140.3881  169.9894 C.ar    1  UNL1        0.1506
     24 F         143.4399  139.9380  171.3463 F       1  UNL1       -0.2033
     25 C         143.4270  141.7179  169.4537 C.ar    1  UNL1        0.0848
     26 CL        144.3222  142.5977  170.2750 Cl      1  UNL1       -0.0799
     27 C         142.9730  142.1680  168.0968 C.ar    1  UNL1        0.0122
     28 C         142.3848  140.6093  165.2894 C.3     1  UNL1        0.4267
     29 F         143.1459  139.4802  164.6602 F       1  UNL1       -0.1670
     30 F         143.8231  140.9818  165.4954 F       1  UNL1       -0.1670
     31 F         141.3149  139.6903  164.7788 F       1  UNL1       -0.1670
@<TRIPOS>BOND
     1    17    18    1
     2    18    20    1
     3    20    21   ar
     4    21    22   ar
     5    22    23   ar
     6    23    24    1
     7    23    25   ar
     8    25    26    1
     9    25    27   ar
    10    18     1    1
    11     1     2   ar
    12     2     3   ar
    13     3     4   ar
    14     4     5   ar
    15     5     6   ar
    16     6     7   ar
    17     7     8   ar
    18     8    10    1
    19    10    11   ar
    20    11    12   ar
    21    12    13   ar
    22    13    14    1
    23    13    15   ar
    24    15    16   ar
    25     5     9   ar
    26    18    28    1
    27    28    29    1
    28    28    30    1
    29    28    31    1
    30    27    20   ar
    31     9     1   ar
    32     8     4   ar
    33    16    10   ar
    34    17    19    1
@<TRIPOS>MOLECULE
*****
 31 34 0 0 0
SMALL
GASTEIGER

@<TRIPOS>ATOM
      1 C         141.2364  139.5763  163.9489 C.ar    1  UNL1        0.0138
      2 C         141.4082  138.2390  163.2916 C.ar    1  UNL1        0.0001
      3 C         141.4058  138.1328  161.7954 C.ar    1  UNL1        0.0190
      4 C         141.2315  139.3640  160.9565 C.ar    1  UNL1        0.0843
      5 C         141.0596  140.7013  161.6137 C.ar    1  UNL1        0.0384
      6 C         140.9095  141.7322  160.5345 C.ar    1  UNL1        0.1220
      7 N         140.9885  141.0320  159.2103 N.ar    1  UNL1       -0.1635
      8 N         141.1875  139.5684  159.4710 N.ar    1  UNL1       -0.2296
      9 C         141.0621  140.8075  163.1099 C.ar    1  UNL1        0.0017
     10 C         141.3195  138.4972  158.4294 C.ar    1  UNL1        0.0829
     11 C         142.6072  137.7405  158.2905 C.ar    1  UNL1        0.0215
     12 C         142.7390  136.6693  157.2488 C.ar    1  UNL1        0.0312
     13 C         141.5832  136.3548  156.3460 C.ar    1  UNL1        0.1402
     14 F         141.7151  135.2836  155.3043 F       1  UNL1       -0.2042
     15 C         140.2954  137.1114  156.4848 C.ar    1  UNL1        0.0312
     16 C         140.1636  138.1826  157.5265 C.ar    1  UNL1        0.0215
     17 O         140.1240  138.6818  165.5181 O.3     1  UNL1       -0.3715
     18 C         141.2389  139.6826  165.4451 C.3     1  UNL1        0.2136
     19 H         140.2590  137.9975  164.8439 H       1  UNL1        0.2114
     20 C         141.2413  139.7888  166.9413 C.ar    1  UNL1        0.0147
     21 C         142.5206  139.6099  167.7038 C.ar    1  UNL1        0.0009
     22 C         142.5231  139.7162  169.2001 C.ar    1  UNL1        0.0303
     23 C         141.2463  140.0013  169.9338 C.ar    1  UNL1        0.1506
     24 F         141.2487  140.1076  171.4300 F       1  UNL1       -0.2033
     25 C         139.9670  140.1802  169.1713 C.ar    1  UNL1        0.0848
     26 CL        138.6901  140.4654  169.9050 Cl      1  UNL1       -0.0799
     27 C         139.9645  140.0740  167.6751 C.ar    1  UNL1        0.0122
     28 C         142.3538  140.6833  165.3722 C.3     1  UNL1        0.4267
     29 F         143.4687  141.6842  165.2993 F       1  UNL1       -0.1670
     30 F         143.5320  139.8809  164.9055 F       1  UNL1       -0.1670
     31 F         141.7152  141.9702  165.8036 F       1  UNL1       -0.1670
@<TRIPOS>BOND
     1    17    18    1
     2    18    20    1
     3    20    21   ar
     4    21    22   ar
     5    22    23   ar
     6    23    24    1
     7    23    25   ar
     8    25    26    1
     9    25    27   ar
    10    18     1    1
    11     1     2   ar
    12     2     3   ar
    13     3     4   ar
    14     4     5   ar
    15     5     6   ar
    16     6     7   ar
    17     7     8   ar
    18     8    10    1
    19    10    11   ar
    20    11    12   ar
    21    12    13   ar
    22    13    14    1
    23    13    15   ar
    24    15    16   ar
    25     5     9   ar
    26    18    28    1
    27    28    29    1
    28    28    30    1
    29    28    31    1
    30    27    20   ar
    31     9     1   ar
    32     8     4   ar
    33    16    10   ar
    34    17    19    1
@<TRIPOS>MOLECULE
*****
 31 34 0 0 0
SMALL
GASTEIGER

@<TRIPOS>ATOM
      1 C         142.0778  141.2806  164.0567 C.ar    1  UNL1        0.0138
      2 C         142.7766  140.2695  163.1968 C.ar    1  UNL1        0.0001
      3 C         143.1735  140.6240  161.7944 C.ar    1  UNL1        0.0190
      4 C         142.8715  141.9894  161.2518 C.ar    1  UNL1        0.0843
      5 C         142.1728  143.0005  162.1117 C.ar    1  UNL1        0.0384
      6 C         142.0090  144.2572  161.3095 C.ar    1  UNL1        0.1220
      7 N         142.6065  144.0229  159.9537 N.ar    1  UNL1       -0.1635
      8 N         143.1397  142.6214  159.9181 N.ar    1  UNL1       -0.2296
      9 C         141.7759  142.6460  163.5142 C.ar    1  UNL1        0.0017
     10 C         143.8212  141.9666  158.7533 C.ar    1  UNL1        0.0829
     11 C         145.0820  142.5561  158.1938 C.ar    1  UNL1        0.0215
     12 C         145.7634  141.9013  157.0290 C.ar    1  UNL1        0.0312
     13 C         145.1842  140.6571  156.4236 C.ar    1  UNL1        0.1402
     14 F         145.8657  140.0023  155.2588 F       1  UNL1       -0.2042
     15 C         143.9234  140.0676  156.9831 C.ar    1  UNL1        0.0312
     16 C         143.2420  140.7224  158.1479 C.ar    1  UNL1        0.0215
     17 O         140.6878  139.9355  164.9279 O.3     1  UNL1       -0.3715
     18 C         141.6809  140.9262  165.4592 C.3     1  UNL1        0.2136
     19 H         141.0591  139.4910  164.1498 H       1  UNL1        0.2114
     20 C         141.2841  140.5718  166.8616 C.ar    1  UNL1        0.0147
     21 C         139.8984  140.8762  167.3486 C.ar    1  UNL1        0.0009
     22 C         139.5015  140.5218  168.7511 C.ar    1  UNL1        0.0303
     23 C         140.4904  139.8631  169.6666 C.ar    1  UNL1        0.1506
     24 F         140.0936  139.5087  171.0691 F       1  UNL1       -0.2033
     25 C         141.8761  139.5587  169.1797 C.ar    1  UNL1        0.0848
     26 CL        142.8650  138.9000  170.0951 Cl      1  UNL1       -0.0799
     27 C         142.2730  139.9130  167.7772 C.ar    1  UNL1        0.0122
     28 C         142.6741  141.9168  165.9905 C.3     1  UNL1        0.4267
     29 F         143.6673  142.9074  166.5218 F       1  UNL1       -0.1670
     30 F         141.8255  142.9653  166.6466 F       1  UNL1       -0.1670
     31 F         144.0034  141.3477  165.5916 F       1  UNL1       -0.1670
@<TRIPOS>BOND
     1    17    18    1
     2    18    20    1
     3    20    21   ar
     4    21    22   ar
     5    22    23   ar
     6    23    24    1
     7    23    25   ar
     8    25    26    1
     9    25    27   ar
    10    18     1    1
    11     1     2   ar
    12     2     3   ar
    13     3     4   ar
    14     4     5   ar
    15     5     6   ar
    16     6     7   ar
    17     7     8   ar
    18     8    10    1
    19    10    11   ar
    20    11    12   ar
    21    12    13   ar
    22    13    14    1
    23    13    15   ar
    24    15    16   ar
    25     5     9   ar
    26    18    28    1
    27    28    29    1
    28    28    30    1
    29    28    31    1
    30    27    20   ar
    31     9     1   ar
    32     8     4   ar
    33    16    10   ar
    34    17    19    1
@<TRIPOS>MOLECULE
*****
 31 34 0 0 0
SMALL
GASTEIGER

@<TRIPOS>ATOM
      1 C         141.2069  142.4127  163.6541 C.ar    1  UNL1        0.0138
      2 C         142.0946  141.5189  162.8398 C.ar    1  UNL1        0.0001
      3 C         142.5129  141.9327  161.4601 C.ar    1  UNL1        0.0190
      4 C         142.0436  143.2404  160.8946 C.ar    1  UNL1        0.0843
      5 C         141.1559  144.1342  161.7089 C.ar    1  UNL1        0.0384
      6 C         140.8536  145.3557  160.8924 C.ar    1  UNL1        0.1220
      7 N         141.5545  145.2168  159.5735 N.ar    1  UNL1       -0.1635
      8 N         142.2900  143.9094  159.5748 N.ar    1  UNL1       -0.2296
      9 C         140.7375  143.7204  163.0886 C.ar    1  UNL1        0.0017
     10 C         143.1251  143.3665  158.4534 C.ar    1  UNL1        0.0829
     11 C         144.4451  142.7174  158.7475 C.ar    1  UNL1        0.0215
     12 C         145.2801  142.1744  157.6260 C.ar    1  UNL1        0.0312
     13 C         144.7954  142.2806  156.2105 C.ar    1  UNL1        0.1402
     14 F         145.6306  141.7376  155.0890 F       1  UNL1       -0.2042
     15 C         143.4755  142.9297  155.9164 C.ar    1  UNL1        0.0312
     16 C         142.6404  143.4726  157.0379 C.ar    1  UNL1        0.0215
     17 O         142.2278  141.9345  165.4511 O.3     1  UNL1       -0.3715
     18 C         140.7884  141.9989  165.0339 C.3     1  UNL1        0.2136
     19 H         142.7181  142.6600  165.0338 H       1  UNL1        0.2114
     20 C         140.3700  141.5851  166.4136 C.ar    1  UNL1        0.0147
     21 C         139.7095  140.2559  166.6300 C.ar    1  UNL1        0.0009
     22 C         139.2911  139.8421  168.0098 C.ar    1  UNL1        0.0303
     23 C         139.5331  140.7575  169.1731 C.ar    1  UNL1        0.1506
     24 F         139.1147  140.3438  170.5528 F       1  UNL1       -0.2033
     25 C         140.1936  142.0868  168.9567 C.ar    1  UNL1        0.0848
     26 CL        140.4356  143.0023  170.1199 Cl      1  UNL1       -0.0799
     27 C         140.6120  142.5006  167.5770 C.ar    1  UNL1        0.0122
     28 C         139.3491  142.0633  164.6167 C.3     1  UNL1        0.4267
     29 F         137.9097  142.1277  164.1994 F       1  UNL1       -0.1670
     30 F         138.8085  143.2489  165.3597 F       1  UNL1       -0.1670
     31 F         139.1930  140.9089  163.6717 F       1  UNL1       -0.1670
@<TRIPOS>BOND
     1    17    18    1
     2    18    20    1
     3    20    21   ar
     4    21    22   ar
     5    22    23   ar
     6    23    24    1
     7    23    25   ar
     8    25    26    1
     9    25    27   ar
    10    18     1    1
    11     1     2   ar
    12     2     3   ar
    13     3     4   ar
    14     4     5   ar
    15     5     6   ar
    16     6     7   ar
    17     7     8   ar
    18     8    10    1
    19    10    11   ar
    20    11    12   ar
    21    12    13   ar
    22    13    14    1
    23    13    15   ar
    24    15    16   ar
    25     5     9   ar
    26    18    28    1
    27    28    29    1
    28    28    30    1
    29    28    31    1
    30    27    20   ar
    31     9     1   ar
    32     8     4   ar
    33    16    10   ar
    34    17    19    1
