@<TRIPOS>MOLECULE
*****
 33 37 0 0 0
SMALL
GASTEIGER

@<TRIPOS>ATOM
      1 C         139.7164  142.9926  160.4082 C.2     1  UNL1        0.2715
      2 O         138.8020  142.6478  159.2703 O.2     1  UNL1       -0.2679
      3 N         140.8207  143.9879  160.2080 N.am    1  UNL1       -0.2387
      4 C         141.7350  144.3325  161.3461 C.ar    1  UNL1        0.1483
      5 N         143.1155  143.7485  161.4024 N.ar    1  UNL1       -0.2279
      6 C         144.0298  144.0932  162.5405 C.ar    1  UNL1        0.1004
      7 C         143.5637  145.0220  163.6223 C.ar    1  UNL1        0.0216
      8 C         142.1832  145.6060  163.5659 C.ar    1  UNL1        0.0158
      9 C         141.2689  145.2613  162.4278 C.ar    1  UNL1        0.0896
     10 CL        139.8884  145.8453  162.3715 Cl      1  UNL1       -0.0793
     11 C         141.0105  144.6384  158.8699 C.3     1  UNL1        0.0972
     12 C         142.0135  144.0842  157.9020 C.3     1  UNL1        0.0231
     13 C         142.2033  144.7348  156.5638 C.3     1  UNL1        0.0188
     14 C         141.3901  145.9396  156.1935 C.3     1  UNL1        0.0687
     15 N         140.3871  146.4939  157.1615 N.3     1  UNL1       -0.2961
     16 C         140.1973  145.8433  158.4996 C.3     1  UNL1        0.0890
     17 H         139.4817  146.4718  156.6922 H       1  UNL1        0.1233
     18 C         139.1470  141.0408  164.4228 C.ar    1  UNL1        0.1052
     19 C         138.1656  142.0684  163.9425 C.ar    1  UNL1        0.0225
     20 C         138.3554  142.7190  162.6043 C.ar    1  UNL1        0.0253
     21 C         139.5266  142.3420  161.7464 C.ar    1  UNL1        0.1351
     22 N         140.5081  141.3143  162.2267 N.ar    1  UNL1       -0.2377
     23 C         140.3182  140.6637  163.5649 C.ar    1  UNL1        0.1182
     24 C         141.1166  141.3174  171.2548 C.3     1  UNL1        0.0327
     25 C         140.6175  141.1451  169.8508 C.ar    1  UNL1       -0.0010
     26 C         141.0936  142.0667  168.7672 C.ar    1  UNL1        0.0964
     27 N         140.5946  141.8944  167.3632 N.ar    1  UNL1       -0.2240
     28 C         139.6195  140.8006  167.0427 C.ar    1  UNL1        0.1849
     29 C         139.1434  139.8791  168.1262 C.ar    1  UNL1        0.1399
     30 C         139.6425  140.0514  169.5303 C.ar    1  UNL1        0.0214
     31 N         138.1868  138.8991  167.5141 N.ar    1  UNL1       -0.1268
     32 N         138.0718  139.2150  166.0523 N.ar    1  UNL1       -0.0581
     33 N         138.9572  140.3902  165.7610 N.ar    1  UNL1       -0.1914
@<TRIPOS>BOND
     1    24    25    1
     2    25    26   ar
     3    26    27   ar
     4    27    28   ar
     5    28    29   ar
     6    29    30   ar
     7    29    31   ar
     8    31    32   ar
     9    32    33   ar
    10    33    18    1
    11    18    19   ar
    12    19    20   ar
    13    20    21   ar
    14    21     1    1
    15     1     2    2
    16     1     3   am
    17     3     4    1
    18     4     5   ar
    19     5     6   ar
    20     6     7   ar
    21     7     8   ar
    22     8     9   ar
    23     9    10    1
    24    11     3    1
    25    11    12    1
    26    12    13    1
    27    13    14    1
    28    14    15    1
    29    15    16    1
    30    21    22   ar
    31    22    23   ar
    32    30    25   ar
    33    23    18   ar
    34    33    28   ar
    35     9     4   ar
    36    16    11    1
    37    15    17    1
@<TRIPOS>MOLECULE
*****
 33 37 0 0 0
SMALL
GASTEIGER

@<TRIPOS>ATOM
      1 C         141.0848  142.8458  165.7203 C.2     1  UNL1        0.2715
      2 O         140.0360  143.3056  166.6891 O.2     1  UNL1       -0.2679
      3 N         142.2097  141.9725  166.1914 N.am    1  UNL1       -0.2387
      4 C         143.2585  141.5127  165.2225 C.ar    1  UNL1        0.1483
      5 N         143.1292  140.1751  164.5562 N.ar    1  UNL1       -0.2279
      6 C         144.1780  139.7154  163.5873 C.ar    1  UNL1        0.1004
      7 C         145.3561  140.5932  163.2848 C.ar    1  UNL1        0.0216
      8 C         145.4854  141.9308  163.9512 C.ar    1  UNL1        0.0158
      9 C         144.4366  142.3905  164.9200 C.ar    1  UNL1        0.0896
     10 CL        144.5659  143.7281  165.5864 Cl      1  UNL1       -0.0793
     11 C         142.2859  141.5590  167.6313 C.3     1  UNL1        0.0972
     12 C         143.1816  142.3011  168.5783 C.3     1  UNL1        0.0231
     13 C         143.2577  141.8877  170.0182 C.3     1  UNL1        0.0188
     14 C         142.4381  140.7321  170.5110 C.3     1  UNL1        0.0687
     15 N         141.5423  139.9900  169.5639 N.3     1  UNL1       -0.2961
     16 C         141.4662  140.4035  168.1241 C.3     1  UNL1        0.0890
     17 H         140.5965  140.0568  169.9399 H       1  UNL1        0.1233
     18 C         140.8564  144.0861  161.4006 C.ar    1  UNL1        0.1052
     19 C         141.3156  145.0662  162.4391 C.ar    1  UNL1        0.0225
     20 C         141.3917  144.6528  163.8790 C.ar    1  UNL1        0.0253
     21 C         141.0087  143.2592  164.2804 C.ar    1  UNL1        0.1351
     22 N         140.5495  142.2791  163.2419 N.ar    1  UNL1       -0.2377
     23 C         140.4734  142.6925  161.8020 C.ar    1  UNL1        0.1182
     24 C         137.3667  142.9720  155.3004 C.3     1  UNL1        0.0327
     25 C         138.1833  143.3044  156.5139 C.ar    1  UNL1       -0.0010
     26 C         137.9047  142.6158  157.8170 C.ar    1  UNL1        0.0964
     27 N         138.7214  142.9482  159.0305 N.ar    1  UNL1       -0.2240
     28 C         139.8166  143.9692  158.9409 C.ar    1  UNL1        0.1849
     29 C         140.0952  144.6578  157.6378 C.ar    1  UNL1        0.1399
     30 C         139.2785  144.3254  156.4243 C.ar    1  UNL1        0.0214
     31 N         141.2311  145.6137  157.8522 N.ar    1  UNL1       -0.1268
     32 N         141.6545  145.5159  159.2878 N.ar    1  UNL1       -0.0581
     33 N         140.7803  144.4995  159.9607 N.ar    1  UNL1       -0.1914
@<TRIPOS>BOND
     1    24    25    1
     2    25    26   ar
     3    26    27   ar
     4    27    28   ar
     5    28    29   ar
     6    29    30   ar
     7    29    31   ar
     8    31    32   ar
     9    32    33   ar
    10    33    18    1
    11    18    19   ar
    12    19    20   ar
    13    20    21   ar
    14    21     1    1
    15     1     2    2
    16     1     3   am
    17     3     4    1
    18     4     5   ar
    19     5     6   ar
    20     6     7   ar
    21     7     8   ar
    22     8     9   ar
    23     9    10    1
    24    11     3    1
    25    11    12    1
    26    12    13    1
    27    13    14    1
    28    14    15    1
    29    15    16    1
    30    21    22   ar
    31    22    23   ar
    32    30    25   ar
    33    23    18   ar
    34    33    28   ar
    35     9     4   ar
    36    16    11    1
    37    15    17    1
@<TRIPOS>MOLECULE
*****
 33 37 0 0 0
SMALL
GASTEIGER

@<TRIPOS>ATOM
      1 C         142.1818  142.3345  165.7730 C.2     1  UNL1        0.2715
      2 O         143.3345  142.4759  166.7224 O.2     1  UNL1       -0.2679
      3 N         140.8207  141.9787  166.2935 N.am    1  UNL1       -0.2387
      4 C         139.6682  141.8373  165.3440 C.ar    1  UNL1        0.1483
      5 N         139.3131  140.4890  164.7909 N.ar    1  UNL1       -0.2279
      6 C         138.1604  140.3477  163.8415 C.ar    1  UNL1        0.1004
      7 C         137.3629  141.5547  163.4450 C.ar    1  UNL1        0.0216
      8 C         137.7180  142.9030  163.9981 C.ar    1  UNL1        0.0158
      9 C         138.8706  143.0443  164.9476 C.ar    1  UNL1        0.0896
     10 CL        139.2257  144.3926  165.5007 Cl      1  UNL1       -0.0793
     11 C         140.6123  141.7643  167.7634 C.3     1  UNL1        0.0972
     12 C         140.4459  142.9423  168.6770 C.3     1  UNL1        0.0231
     13 C         140.2375  142.7279  170.1468 C.3     1  UNL1        0.0188
     14 C         140.1955  141.3355  170.7031 C.3     1  UNL1        0.0687
     15 N         140.3620  140.1575  169.7895 N.3     1  UNL1       -0.2961
     16 C         140.5704  140.3719  168.3196 C.3     1  UNL1        0.0890
     17 H         139.5217  139.5876  169.8877 H       1  UNL1        0.1233
     18 C         142.8070  142.9777  161.3632 C.ar    1  UNL1        0.1052
     19 C         142.6401  144.1556  162.2768 C.ar    1  UNL1        0.0225
     20 C         142.4317  143.9412  163.7466 C.ar    1  UNL1        0.0253
     21 C         142.3902  142.5489  164.3031 C.ar    1  UNL1        0.1351
     22 N         142.5571  141.3710  163.3895 N.ar    1  UNL1       -0.2377
     23 C         142.7655  141.5854  161.9197 C.ar    1  UNL1        0.1182
     24 C         140.3408  146.4800  155.6814 C.3     1  UNL1        0.0327
     25 C         140.9608  145.6830  156.7906 C.ar    1  UNL1       -0.0010
     26 C         140.4048  145.7736  158.1808 C.ar    1  UNL1        0.0964
     27 N         141.0249  144.9766  159.2900 N.ar    1  UNL1       -0.2240
     28 C         142.2010  144.0891  159.0090 C.ar    1  UNL1        0.1849
     29 C         142.7570  143.9985  157.6189 C.ar    1  UNL1        0.1399
     30 C         142.1370  144.7955  156.5097 C.ar    1  UNL1        0.0214
     31 N         143.9152  143.0455  157.6440 N.ar    1  UNL1       -0.1268
     32 N         144.0749  142.5472  159.0497 N.ar    1  UNL1       -0.0581
     33 N         143.0154  143.1921  159.8933 N.ar    1  UNL1       -0.1914
@<TRIPOS>BOND
     1    24    25    1
     2    25    26   ar
     3    26    27   ar
     4    27    28   ar
     5    28    29   ar
     6    29    30   ar
     7    29    31   ar
     8    31    32   ar
     9    32    33   ar
    10    33    18    1
    11    18    19   ar
    12    19    20   ar
    13    20    21   ar
    14    21     1    1
    15     1     2    2
    16     1     3   am
    17     3     4    1
    18     4     5   ar
    19     5     6   ar
    20     6     7   ar
    21     7     8   ar
    22     8     9   ar
    23     9    10    1
    24    11     3    1
    25    11    12    1
    26    12    13    1
    27    13    14    1
    28    14    15    1
    29    15    16    1
    30    21    22   ar
    31    22    23   ar
    32    30    25   ar
    33    23    18   ar
    34    33    28   ar
    35     9     4   ar
    36    16    11    1
    37    15    17    1
@<TRIPOS>MOLECULE
*****
 33 37 0 0 0
SMALL
GASTEIGER

@<TRIPOS>ATOM
      1 C         140.0174  142.1917  166.0989 C.2     1  UNL1        0.2715
      2 O         139.8730  143.4489  166.9041 O.2     1  UNL1       -0.2679
      3 N         140.4200  140.9126  166.7711 N.am    1  UNL1       -0.2387
      4 C         140.5644  139.6554  165.9658 C.ar    1  UNL1        0.1483
      5 N         141.9067  139.2614  165.4244 N.ar    1  UNL1       -0.2279
      6 C         142.0509  138.0042  164.6191 C.ar    1  UNL1        0.1004
      7 C         140.8530  137.1408  164.3552 C.ar    1  UNL1        0.0216
      8 C         139.5107  137.5348  164.8965 C.ar    1  UNL1        0.0158
      9 C         139.3664  138.7921  165.7018 C.ar    1  UNL1        0.0896
     10 CL        138.0242  139.1861  166.2432 Cl      1  UNL1       -0.0793
     11 C         140.6783  140.8908  168.2485 C.3     1  UNL1        0.0972
     12 C         142.0642  141.1277  168.7712 C.3     1  UNL1        0.0231
     13 C         142.3225  141.1059  170.2486 C.3     1  UNL1        0.0188
     14 C         141.1949  140.8472  171.2034 C.3     1  UNL1        0.0687
     15 N         139.8090  140.6103  170.6807 N.3     1  UNL1       -0.2961
     16 C         139.5507  140.6321  169.2033 C.3     1  UNL1        0.0890
     17 H         139.2119  141.3262  171.0946 H       1  UNL1        0.1233
     18 C         139.2425  142.2571  161.6666 C.ar    1  UNL1        0.1052
     19 C         138.0956  142.1458  162.6269 C.ar    1  UNL1        0.0225
     20 C         138.3539  142.1240  164.1043 C.ar    1  UNL1        0.0253
     21 C         139.7591  142.2135  164.6215 C.ar    1  UNL1        0.1351
     22 N         140.9059  142.3247  163.6611 N.ar    1  UNL1       -0.2377
     23 C         140.6476  142.3465  162.1837 C.ar    1  UNL1        0.1182
     24 C         140.0955  146.1344  155.7614 C.3     1  UNL1        0.0327
     25 C         139.8505  145.2168  156.9224 C.ar    1  UNL1       -0.0010
     26 C         140.2979  145.6123  158.2984 C.ar    1  UNL1        0.0964
     27 N         140.0530  144.6947  159.4594 N.ar    1  UNL1       -0.2240
     28 C         139.3606  143.3815  159.2445 C.ar    1  UNL1        0.1849
     29 C         138.9132  142.9860  157.8685 C.ar    1  UNL1        0.1399
     30 C         139.1582  143.9036  156.7075 C.ar    1  UNL1        0.0214
     31 N         138.2602  141.6388  157.9627 N.ar    1  UNL1       -0.1268
     32 N         138.3041  141.2018  159.3970 N.ar    1  UNL1       -0.0581
     33 N         138.9842  142.2788  160.1891 N.ar    1  UNL1       -0.1914
@<TRIPOS>BOND
     1    24    25    1
     2    25    26   ar
     3    26    27   ar
     4    27    28   ar
     5    28    29   ar
     6    29    30   ar
     7    29    31   ar
     8    31    32   ar
     9    32    33   ar
    10    33    18    1
    11    18    19   ar
    12    19    20   ar
    13    20    21   ar
    14    21     1    1
    15     1     2    2
    16     1     3   am
    17     3     4    1
    18     4     5   ar
    19     5     6   ar
    20     6     7   ar
    21     7     8   ar
    22     8     9   ar
    23     9    10    1
    24    11     3    1
    25    11    12    1
    26    12    13    1
    27    13    14    1
    28    14    15    1
    29    15    16    1
    30    21    22   ar
    31    22    23   ar
    32    30    25   ar
    33    23    18   ar
    34    33    28   ar
    35     9     4   ar
    36    16    11    1
    37    15    17    1
@<TRIPOS>MOLECULE
*****
 33 37 0 0 0
SMALL
GASTEIGER

@<TRIPOS>ATOM
      1 C         142.6369  140.4257  165.6593 C.2     1  UNL1        0.2715
      2 O         142.8067  139.2905  166.6250 O.2     1  UNL1       -0.2679
      3 N         142.3148  141.8001  166.1666 N.am    1  UNL1       -0.2387
      4 C         142.1451  142.9352  165.2008 C.ar    1  UNL1        0.1483
      5 N         140.7846  143.2639  164.6613 N.ar    1  UNL1       -0.2279
      6 C         140.6150  144.3990  163.6956 C.ar    1  UNL1        0.1004
      7 C         141.8058  145.2055  163.2693 C.ar    1  UNL1        0.0216
      8 C         143.1662  144.8768  163.8088 C.ar    1  UNL1        0.0158
      9 C         143.3359  143.7417  164.7746 C.ar    1  UNL1        0.0896
     10 CL        144.6963  143.4130  165.3141 Cl      1  UNL1       -0.0793
     11 C         142.1625  142.0393  167.6395 C.3     1  UNL1        0.0972
     12 C         143.3715  142.3150  168.4836 C.3     1  UNL1        0.0231
     13 C         143.2191  142.5543  169.9565 C.3     1  UNL1        0.0188
     14 C         141.8578  142.5178  170.5854 C.3     1  UNL1        0.0687
     15 N         140.6489  142.2421  169.7413 N.3     1  UNL1       -0.2961
     16 C         140.8012  142.0028  168.2684 C.3     1  UNL1        0.0890
     17 H         140.0271  143.0438  169.8467 H       1  UNL1        0.1233
     18 C         143.0939  139.7080  161.2404 C.ar    1  UNL1        0.1052
     19 C         144.2981  140.0225  162.0777 C.ar    1  UNL1        0.0225
     20 C         144.1457  140.2617  163.5506 C.ar    1  UNL1        0.0253
     21 C         142.7893  140.1865  164.1864 C.ar    1  UNL1        0.1351
     22 N         141.5851  139.8720  163.3491 N.ar    1  UNL1       -0.2377
     23 C         141.7374  139.6328  161.8762 C.ar    1  UNL1        0.1182
     24 C         144.5299  142.8918  155.0410 C.3     1  UNL1        0.0327
     25 C         144.2137  142.0962  156.2727 C.ar    1  UNL1       -0.0010
     26 C         144.1625  142.7732  157.6102 C.ar    1  UNL1        0.0964
     27 N         143.8463  141.9776  158.8419 N.ar    1  UNL1       -0.2240
     28 C         143.5812  140.5050  158.7360 C.ar    1  UNL1        0.1849
     29 C         143.6323  139.8280  157.3985 C.ar    1  UNL1        0.1399
     30 C         143.9486  140.6236  156.1668 C.ar    1  UNL1        0.0214
     31 N         143.3289  138.3733  157.6033 N.ar    1  UNL1       -0.1268
     32 N         143.0903  138.1513  159.0675 N.ar    1  UNL1       -0.0581
     33 N         143.2462  139.4688  159.7675 N.ar    1  UNL1       -0.1914
@<TRIPOS>BOND
     1    24    25    1
     2    25    26   ar
     3    26    27   ar
     4    27    28   ar
     5    28    29   ar
     6    29    30   ar
     7    29    31   ar
     8    31    32   ar
     9    32    33   ar
    10    33    18    1
    11    18    19   ar
    12    19    20   ar
    13    20    21   ar
    14    21     1    1
    15     1     2    2
    16     1     3   am
    17     3     4    1
    18     4     5   ar
    19     5     6   ar
    20     6     7   ar
    21     7     8   ar
    22     8     9   ar
    23     9    10    1
    24    11     3    1
    25    11    12    1
    26    12    13    1
    27    13    14    1
    28    14    15    1
    29    15    16    1
    30    21    22   ar
    31    22    23   ar
    32    30    25   ar
    33    23    18   ar
    34    33    28   ar
    35     9     4   ar
    36    16    11    1
    37    15    17    1
@<TRIPOS>MOLECULE
*****
 33 37 0 0 0
SMALL
GASTEIGER

@<TRIPOS>ATOM
      1 C         141.1894  142.7939  165.9547 C.2     1  UNL1        0.2715
      2 O         140.1646  143.2131  166.9666 O.2     1  UNL1       -0.2679
      3 N         142.3163  141.8901  166.3587 N.am    1  UNL1       -0.2387
      4 C         143.3411  141.4709  165.3467 C.ar    1  UNL1        0.1483
      5 N         143.2185  140.1425  164.6610 N.ar    1  UNL1       -0.2279
      6 C         144.2433  139.7234  163.6491 C.ar    1  UNL1        0.1004
      7 C         145.3908  140.6327  163.3228 C.ar    1  UNL1        0.0216
      8 C         145.5134  141.9611  164.0085 C.ar    1  UNL1        0.0158
      9 C         144.4886  142.3802  165.0204 C.ar    1  UNL1        0.0896
     10 CL        144.6112  143.7086  165.7061 Cl      1  UNL1       -0.0793
     11 C         142.4184  141.4055  167.7746 C.3     1  UNL1        0.0972
     12 C         141.6806  140.1706  168.1997 C.3     1  UNL1        0.0231
     13 C         141.7827  139.6860  169.6156 C.3     1  UNL1        0.0188
     14 C         142.6226  140.4363  170.6063 C.3     1  UNL1        0.0687
     15 N         143.3604  141.6712  170.1812 N.3     1  UNL1       -0.2961
     16 C         143.2583  142.1558  168.7653 C.3     1  UNL1        0.0890
     17 H         144.3494  141.5007  170.3635 H       1  UNL1        0.1233
     18 C         140.8831  144.2477  161.7070 C.ar    1  UNL1        0.1052
     19 C         140.2924  142.9235  162.0910 C.ar    1  UNL1        0.0225
     20 C         140.3945  142.4389  163.5068 C.ar    1  UNL1        0.0253
     21 C         141.0873  143.2785  164.5388 C.ar    1  UNL1        0.1351
     22 N         141.6780  144.6027  164.1549 N.ar    1  UNL1       -0.2377
     23 C         141.5759  145.0873  162.7390 C.ar    1  UNL1        0.1182
     24 C         143.5127  143.3753  155.1529 C.3     1  UNL1        0.0327
     25 C         142.8713  143.6619  156.4782 C.ar    1  UNL1       -0.0010
     26 C         143.2996  142.9024  157.6987 C.ar    1  UNL1        0.0964
     27 N         142.6582  143.1890  159.0240 N.ar    1  UNL1       -0.2240
     28 C         141.5883  144.2352  159.1288 C.ar    1  UNL1        0.1849
     29 C         141.1600  144.9947  157.9083 C.ar    1  UNL1        0.1399
     30 C         141.8015  144.7081  156.5830 C.ar    1  UNL1        0.0214
     31 N         140.0879  145.9613  158.3164 N.ar    1  UNL1       -0.1268
     32 N         139.8537  145.7991  159.7891 N.ar    1  UNL1       -0.0581
     33 N         140.7811  144.7323  160.2911 N.ar    1  UNL1       -0.1914
@<TRIPOS>BOND
     1    24    25    1
     2    25    26   ar
     3    26    27   ar
     4    27    28   ar
     5    28    29   ar
     6    29    30   ar
     7    29    31   ar
     8    31    32   ar
     9    32    33   ar
    10    33    18    1
    11    18    19   ar
    12    19    20   ar
    13    20    21   ar
    14    21     1    1
    15     1     2    2
    16     1     3   am
    17     3     4    1
    18     4     5   ar
    19     5     6   ar
    20     6     7   ar
    21     7     8   ar
    22     8     9   ar
    23     9    10    1
    24    11     3    1
    25    11    12    1
    26    12    13    1
    27    13    14    1
    28    14    15    1
    29    15    16    1
    30    21    22   ar
    31    22    23   ar
    32    30    25   ar
    33    23    18   ar
    34    33    28   ar
    35     9     4   ar
    36    16    11    1
    37    15    17    1
@<TRIPOS>MOLECULE
*****
 33 37 0 0 0
SMALL
GASTEIGER

@<TRIPOS>ATOM
      1 C         140.3799  140.1674  166.1429 C.2     1  UNL1        0.2715
      2 O         139.2042  140.0488  167.0668 O.2     1  UNL1       -0.2679
      3 N         141.7400  140.4751  166.6955 N.am    1  UNL1       -0.2387
      4 C         142.9157  140.5937  165.7715 C.ar    1  UNL1        0.1483
      5 N         143.3080  141.9344  165.2252 N.ar    1  UNL1       -0.2279
      6 C         144.4837  142.0529  164.3012 C.ar    1  UNL1        0.1004
      7 C         145.2670  140.8307  163.9234 C.ar    1  UNL1        0.0216
      8 C         144.8747  139.4900  164.4698 C.ar    1  UNL1        0.0158
      9 C         143.6990  139.3715  165.3938 C.ar    1  UNL1        0.0896
     10 CL        143.3067  138.0308  165.9401 Cl      1  UNL1       -0.0793
     11 C         141.9245  140.6642  168.1720 C.3     1  UNL1        0.0972
     12 C         141.8649  142.0407  168.7651 C.3     1  UNL1        0.0231
     13 C         142.0493  142.2298  170.2417 C.3     1  UNL1        0.0188
     14 C         142.2933  141.0424  171.1251 C.3     1  UNL1        0.0687
     15 N         142.3529  139.6659  170.5320 N.3     1  UNL1       -0.2961
     16 C         142.1685  139.4768  169.0555 C.3     1  UNL1        0.0890
     17 H         141.6280  139.1154  170.9922 H       1  UNL1        0.1233
     18 C         139.8266  139.6002  161.7131 C.ar    1  UNL1        0.1052
     19 C         140.0090  138.4079  162.6050 C.ar    1  UNL1        0.0225
     20 C         140.1934  138.5970  164.0815 C.ar    1  UNL1        0.0253
     21 C         140.1955  139.9783  164.6663 C.ar    1  UNL1        0.1351
     22 N         140.0132  141.1705  163.7745 N.ar    1  UNL1       -0.2377
     23 C         139.8287  140.9814  162.2979 C.ar    1  UNL1        0.1182
     24 C         142.9183  137.0388  155.8383 C.3     1  UNL1        0.0327
     25 C         142.1535  137.6164  156.9923 C.ar    1  UNL1       -0.0010
     26 C         142.7454  137.5944  158.3704 C.ar    1  UNL1        0.0964
     27 N         141.9806  138.1720  159.5244 N.ar    1  UNL1       -0.2240
     28 C         140.6241  138.7715  159.3002 C.ar    1  UNL1        0.1849
     29 C         140.0323  138.7935  157.9221 C.ar    1  UNL1        0.1399
     30 C         140.7970  138.2159  156.7682 C.ar    1  UNL1        0.0214
     31 N         138.6845  139.4466  158.0067 N.ar    1  UNL1       -0.1268
     32 N         138.4435  139.8283  159.4372 N.ar    1  UNL1       -0.0581
     33 N         139.6422  139.4111  160.2366 N.ar    1  UNL1       -0.1914
@<TRIPOS>BOND
     1    24    25    1
     2    25    26   ar
     3    26    27   ar
     4    27    28   ar
     5    28    29   ar
     6    29    30   ar
     7    29    31   ar
     8    31    32   ar
     9    32    33   ar
    10    33    18    1
    11    18    19   ar
    12    19    20   ar
    13    20    21   ar
    14    21     1    1
    15     1     2    2
    16     1     3   am
    17     3     4    1
    18     4     5   ar
    19     5     6   ar
    20     6     7   ar
    21     7     8   ar
    22     8     9   ar
    23     9    10    1
    24    11     3    1
    25    11    12    1
    26    12    13    1
    27    13    14    1
    28    14    15    1
    29    15    16    1
    30    21    22   ar
    31    22    23   ar
    32    30    25   ar
    33    23    18   ar
    34    33    28   ar
    35     9     4   ar
    36    16    11    1
    37    15    17    1
@<TRIPOS>MOLECULE
*****
 33 37 0 0 0
SMALL
GASTEIGER

@<TRIPOS>ATOM
      1 C         140.0240  142.0774  165.9943 C.2     1  UNL1        0.2715
      2 O         139.9405  143.3788  166.7355 O.2     1  UNL1       -0.2679
      3 N         140.3876  140.8195  166.7261 N.am    1  UNL1       -0.2387
      4 C         140.4712  139.5182  165.9849 C.ar    1  UNL1        0.1483
      5 N         141.7923  139.0350  165.4643 N.ar    1  UNL1       -0.2279
      6 C         141.8758  137.7336  164.7230 C.ar    1  UNL1        0.1004
      7 C         140.6381  136.9154  164.5023 C.ar    1  UNL1        0.0216
      8 C         139.3169  137.3986  165.0229 C.ar    1  UNL1        0.0158
      9 C         139.2335  138.7000  165.7642 C.ar    1  UNL1        0.0896
     10 CL        137.9123  139.1832  166.2847 Cl      1  UNL1       -0.0793
     11 C         140.6676  140.8631  168.1991 C.3     1  UNL1        0.0972
     12 C         142.0689  141.0760  168.6902 C.3     1  UNL1        0.0231
     13 C         142.3489  141.1195  170.1632 C.3     1  UNL1        0.0188
     14 C         141.2277  140.9501  171.1450 C.3     1  UNL1        0.0687
     15 N         139.8264  140.7372  170.6539 N.3     1  UNL1       -0.2961
     16 C         139.5464  140.6937  169.1810 C.3     1  UNL1        0.0890
     17 H         139.2613  141.4941  171.0389 H       1  UNL1        0.1233
     18 C         139.1840  141.9469  161.5753 C.ar    1  UNL1        0.1052
     19 C         138.0479  141.9621  162.5546 C.ar    1  UNL1        0.0225
     20 C         138.3279  142.0056  164.0276 C.ar    1  UNL1        0.0253
     21 C         139.7440  142.0339  164.5213 C.ar    1  UNL1        0.1351
     22 N         140.8801  142.0187  163.5420 N.ar    1  UNL1       -0.2377
     23 C         140.6001  141.9752  162.0690 C.ar    1  UNL1        0.1182
     24 C         139.5878  137.8245  155.7895 C.3     1  UNL1        0.0327
     25 C         139.4460  138.7968  156.9229 C.ar    1  UNL1       -0.0010
     26 C         139.8739  138.4041  158.3059 C.ar    1  UNL1        0.0964
     27 N         139.7321  139.3764  159.4393 N.ar    1  UNL1       -0.2240
     28 C         139.1625  140.7413  159.1897 C.ar    1  UNL1        0.1849
     29 C         138.7346  141.1340  157.8067 C.ar    1  UNL1        0.1399
     30 C         138.8764  140.1617  156.6733 C.ar    1  UNL1        0.0214
     31 N         138.2116  142.5388  157.8646 N.ar    1  UNL1       -0.1268
     32 N         138.3164  143.0142  159.2833 N.ar    1  UNL1       -0.0581
     33 N         138.9040  141.9034  160.1023 N.ar    1  UNL1       -0.1914
@<TRIPOS>BOND
     1    24    25    1
     2    25    26   ar
     3    26    27   ar
     4    27    28   ar
     5    28    29   ar
     6    29    30   ar
     7    29    31   ar
     8    31    32   ar
     9    32    33   ar
    10    33    18    1
    11    18    19   ar
    12    19    20   ar
    13    20    21   ar
    14    21     1    1
    15     1     2    2
    16     1     3   am
    17     3     4    1
    18     4     5   ar
    19     5     6   ar
    20     6     7   ar
    21     7     8   ar
    22     8     9   ar
    23     9    10    1
    24    11     3    1
    25    11    12    1
    26    12    13    1
    27    13    14    1
    28    14    15    1
    29    15    16    1
    30    21    22   ar
    31    22    23   ar
    32    30    25   ar
    33    23    18   ar
    34    33    28   ar
    35     9     4   ar
    36    16    11    1
    37    15    17    1
@<TRIPOS>MOLECULE
*****
 33 37 0 0 0
SMALL
GASTEIGER

@<TRIPOS>ATOM
      1 C         142.7046  141.4707  166.0187 C.2     1  UNL1        0.2715
      2 O         143.3660  142.4488  166.9438 O.2     1  UNL1       -0.2679
      3 N         141.7074  140.4871  166.5555 N.am    1  UNL1       -0.2387
      4 C         141.0461  139.5090  165.6303 C.ar    1  UNL1        0.1483
      5 N         141.7041  138.1939  165.3343 N.ar    1  UNL1       -0.2279
      6 C         141.0427  137.2159  164.4091 C.ar    1  UNL1        0.1004
      7 C         139.7233  137.5528  163.7799 C.ar    1  UNL1        0.0216
      8 C         139.0654  138.8679  164.0760 C.ar    1  UNL1        0.0158
      9 C         139.7268  139.8459  165.0012 C.ar    1  UNL1        0.0896
     10 CL        139.0688  141.1610  165.2972 Cl      1  UNL1       -0.0793
     11 C         141.3716  140.4816  168.0174 C.3     1  UNL1        0.0972
     12 C         140.2937  141.3828  168.5427 C.3     1  UNL1        0.0231
     13 C         139.9578  141.3774  170.0046 C.3     1  UNL1        0.0188
     14 C         140.6999  140.4708  170.9412 C.3     1  UNL1        0.0687
     15 N         141.7778  139.5696  170.4159 N.3     1  UNL1       -0.2961
     16 C         142.1137  139.5750  168.9540 C.3     1  UNL1        0.0890
     17 H         141.5049  138.6155  170.6518 H       1  UNL1        0.1233
     18 C         143.7121  141.4870  161.6329 C.ar    1  UNL1        0.1052
     19 C         144.5682  140.7194  162.5963 C.ar    1  UNL1        0.0225
     20 C         144.2323  140.7140  164.0582 C.ar    1  UNL1        0.0253
     21 C         143.0405  141.4761  164.5568 C.ar    1  UNL1        0.1351
     22 N         142.1845  142.2437  163.5934 N.ar    1  UNL1       -0.2377
     23 C         142.5203  142.2491  162.1315 C.ar    1  UNL1        0.1182
     24 C         143.0020  137.8122  155.5812 C.3     1  UNL1        0.0327
     25 C         143.2257  138.6862  156.7796 C.ar    1  UNL1       -0.0010
     26 C         142.6877  138.2756  158.1182 C.ar    1  UNL1        0.0964
     27 N         142.9115  139.1495  159.3166 N.ar    1  UNL1       -0.2240
     28 C         143.6731  140.4341  159.1764 C.ar    1  UNL1        0.1849
     29 C         144.2111  140.8447  157.8377 C.ar    1  UNL1        0.1399
     30 C         143.9874  139.9707  156.6393 C.ar    1  UNL1        0.0214
     31 N         144.9185  142.1569  158.0050 N.ar    1  UNL1       -0.1268
     32 N         144.8176  142.5572  159.4471 N.ar    1  UNL1       -0.0581
     33 N         144.0480  141.4924  160.1710 N.ar    1  UNL1       -0.1914
@<TRIPOS>BOND
     1    24    25    1
     2    25    26   ar
     3    26    27   ar
     4    27    28   ar
     5    28    29   ar
     6    29    30   ar
     7    29    31   ar
     8    31    32   ar
     9    32    33   ar
    10    33    18    1
    11    18    19   ar
    12    19    20   ar
    13    20    21   ar
    14    21     1    1
    15     1     2    2
    16     1     3   am
    17     3     4    1
    18     4     5   ar
    19     5     6   ar
    20     6     7   ar
    21     7     8   ar
    22     8     9   ar
    23     9    10    1
    24    11     3    1
    25    11    12    1
    26    12    13    1
    27    13    14    1
    28    14    15    1
    29    15    16    1
    30    21    22   ar
    31    22    23   ar
    32    30    25   ar
    33    23    18   ar
    34    33    28   ar
    35     9     4   ar
    36    16    11    1
    37    15    17    1
