@<TRIPOS>MOLECULE
*****
 32 36 0 0 0
SMALL
GASTEIGER

@<TRIPOS>ATOM
      1 C         140.7475  139.3435  161.4617 C.ar    1  UNL1        0.0015
      2 C         139.6028  138.6991  160.7375 C.ar    1  UNL1        0.0032
      3 C         139.7141  138.4036  159.2711 C.ar    1  UNL1        0.0369
      4 C         140.9701  138.7525  158.5289 C.ar    1  UNL1        0.1384
      5 C         142.1147  139.3969  159.2531 C.ar    1  UNL1        0.0369
      6 C         142.0034  139.6924  160.7195 C.ar    1  UNL1        0.0032
      7 N         140.4137  140.2299  165.8609 N.ar    1  UNL1       -0.1773
      8 N         140.8805  138.8806  165.4010 N.ar    1  UNL1       -0.1656
      9 C         140.9917  138.5851  163.9346 C.ar    1  UNL1        0.0796
     10 C         141.4585  137.2358  163.4747 C.3     1  UNL1        0.0539
     11 C         140.6362  139.6390  162.9280 C.ar    1  UNL1        0.0201
     12 C         140.1694  140.9882  163.3879 C.ar    1  UNL1        0.0638
     13 C         140.0582  141.2837  164.8544 C.ar    1  UNL1        0.2818
     14 O         139.5914  142.6330  165.3143 O.2     1  UNL1       -0.2651
     15 C         138.1228  139.1164  167.4458 C.3     1  UNL1        0.0342
     16 C         139.1570  139.9686  168.1198 C.ar    1  UNL1        0.0141
     17 C         139.0458  140.2640  169.5861 C.ar    1  UNL1        0.0004
     18 C         140.0800  141.1162  170.2601 C.ar    1  UNL1        0.0205
     19 C         141.2254  141.6729  169.4676 C.ar    1  UNL1        0.1006
     20 N         141.3366  141.3775  168.0012 N.ar    1  UNL1       -0.2252
     21 C         140.3024  140.5253  167.3273 C.ar    1  UNL1        0.1629
     22 O         141.0813  138.4571  157.0625 O.3     1  UNL1       -0.4791
     23 C         141.5652  137.1138  156.6027 C.3     1  UNL1        0.1687
     24 C         142.7988  136.5132  157.2088 C.3     1  UNL1        0.0609
     25 C         143.2827  135.1699  156.7489 C.3     1  UNL1        0.0758
     26 N         142.5329  134.4272  155.6831 N.3     1  UNL1       -0.2737
     27 C         141.2993  135.0277  155.0770 C.3     1  UNL1        0.0758
     28 C         140.8154  136.3710  155.5368 C.3     1  UNL1        0.0609
     29 C         143.0168  133.0839  155.2233 C.3     1  UNL1        0.0575
     30 C         142.6191  132.1277  154.1380 C.3     1  UNL1        0.0160
     31 C         143.7010  131.1842  154.5730 C.3     1  UNL1        0.0028
     32 C         144.0987  132.1403  155.6582 C.3     1  UNL1        0.0160
@<TRIPOS>BOND
     1    15    16    1
     2    16    17   ar
     3    17    18   ar
     4    18    19   ar
     5    19    20   ar
     6    20    21   ar
     7    21     7    1
     8     7     8   ar
     9     8     9   ar
    10     9    10    1
    11     9    11   ar
    12    11     1    1
    13     1     2   ar
    14     2     3   ar
    15     3     4   ar
    16     4    22    1
    17    22    23    1
    18    23    24    1
    19    24    25    1
    20    25    26    1
    21    26    29    1
    22    29    30    1
    23    30    31    1
    24    31    32    1
    25    26    27    1
    26    27    28    1
    27     4     5   ar
    28     5     6   ar
    29    11    12   ar
    30    12    13   ar
    31    13    14    2
    32    21    16   ar
    33    13     7   ar
    34     6     1   ar
    35    28    23    1
    36    32    29    1
@<TRIPOS>MOLECULE
*****
 32 36 0 0 0
SMALL
GASTEIGER

@<TRIPOS>ATOM
      1 C         140.9986  138.9414  158.6118 C.ar    1  UNL1        0.0015
      2 C         139.9261  138.2156  157.8549 C.ar    1  UNL1        0.0032
      3 C         140.2977  137.2373  156.7802 C.ar    1  UNL1        0.0369
      4 C         141.7418  136.9848  156.4625 C.ar    1  UNL1        0.1384
      5 C         142.8143  137.7106  157.2194 C.ar    1  UNL1        0.0369
      6 C         142.4427  138.6890  158.2941 C.ar    1  UNL1        0.0032
      7 N         139.8840  141.8763  161.8357 N.ar    1  UNL1       -0.1773
      8 N         140.3984  140.5164  162.2047 N.ar    1  UNL1       -0.1656
      9 C         140.7699  139.5381  161.1301 C.ar    1  UNL1        0.0796
     10 C         141.2843  138.1782  161.4990 C.3     1  UNL1        0.0539
     11 C         140.6271  139.9197  159.6864 C.ar    1  UNL1        0.0201
     12 C         140.1127  141.2796  159.3175 C.ar    1  UNL1        0.0638
     13 C         139.7412  142.2579  160.3922 C.ar    1  UNL1        0.2818
     14 O         139.2268  143.6178  160.0232 O.2     1  UNL1       -0.2651
     15 C         137.1915  141.7117  163.1485 C.3     1  UNL1        0.0342
     16 C         138.1662  142.7723  163.5668 C.ar    1  UNL1        0.0141
     17 C         137.7947  143.7506  164.6415 C.ar    1  UNL1        0.0004
     18 C         138.7695  144.8112  165.0598 C.ar    1  UNL1        0.0205
     19 C         140.1157  144.8935  164.4034 C.ar    1  UNL1        0.1006
     20 N         140.4872  143.9152  163.3288 N.ar    1  UNL1       -0.2252
     21 C         139.5125  142.8546  162.9105 C.ar    1  UNL1        0.1629
     22 O         142.1133  136.0065  155.3879 O.3     1  UNL1       -0.4791
     23 C         142.4313  134.5848  155.7452 C.3     1  UNL1        0.1687
     24 C         143.6626  134.2690  156.5414 C.3     1  UNL1        0.0609
     25 C         143.9806  132.8473  156.8987 C.3     1  UNL1        0.0758
     26 N         143.0672  131.7414  156.4598 N.3     1  UNL1       -0.2737
     27 C         141.8358  132.0572  155.6636 C.3     1  UNL1        0.0758
     28 C         141.5179  133.4789  155.3062 C.3     1  UNL1        0.0609
     29 C         143.3851  130.3197  156.8171 C.3     1  UNL1        0.0575
     30 C         143.1492  128.9859  156.1726 C.3     1  UNL1        0.0160
     31 C         143.8347  128.3091  157.3224 C.3     1  UNL1        0.0028
     32 C         144.0707  129.6429  157.9669 C.3     1  UNL1        0.0160
@<TRIPOS>BOND
     1    15    16    1
     2    16    17   ar
     3    17    18   ar
     4    18    19   ar
     5    19    20   ar
     6    20    21   ar
     7    21     7    1
     8     7     8   ar
     9     8     9   ar
    10     9    10    1
    11     9    11   ar
    12    11     1    1
    13     1     2   ar
    14     2     3   ar
    15     3     4   ar
    16     4    22    1
    17    22    23    1
    18    23    24    1
    19    24    25    1
    20    25    26    1
    21    26    29    1
    22    29    30    1
    23    30    31    1
    24    31    32    1
    25    26    27    1
    26    27    28    1
    27     4     5   ar
    28     5     6   ar
    29    11    12   ar
    30    12    13   ar
    31    13    14    2
    32    21    16   ar
    33    13     7   ar
    34     6     1   ar
    35    28    23    1
    36    32    29    1
@<TRIPOS>MOLECULE
*****
 32 36 0 0 0
SMALL
GASTEIGER

@<TRIPOS>ATOM
      1 C         140.9289  139.7681  162.3086 C.ar    1  UNL1        0.0015
      2 C         139.9618  138.7813  161.7250 C.ar    1  UNL1        0.0032
      3 C         139.9019  138.5782  160.2400 C.ar    1  UNL1        0.0369
      4 C         140.8092  139.3620  159.3387 C.ar    1  UNL1        0.1384
      5 C         141.7764  140.3489  159.9223 C.ar    1  UNL1        0.0369
      6 C         141.8363  140.5519  161.4073 C.ar    1  UNL1        0.0032
      7 N         141.1085  140.3774  166.7636 N.ar    1  UNL1       -0.1773
      8 N         140.1192  141.1479  165.9405 N.ar    1  UNL1       -0.1656
      9 C         140.0593  140.9448  164.4556 C.ar    1  UNL1        0.0796
     10 C         139.0700  141.7154  163.6325 C.3     1  UNL1        0.0539
     11 C         140.9888  139.9712  163.7936 C.ar    1  UNL1        0.0201
     12 C         141.9782  139.2006  164.6167 C.ar    1  UNL1        0.0638
     13 C         142.0380  139.4038  166.1017 C.ar    1  UNL1        0.2818
     14 O         143.0274  138.6332  166.9248 O.2     1  UNL1       -0.2651
     15 C         143.0783  142.3135  167.9346 C.3     1  UNL1        0.0342
     16 C         142.1533  141.5485  168.8341 C.ar    1  UNL1        0.0141
     17 C         142.2131  141.7516  170.3191 C.ar    1  UNL1        0.0004
     18 C         141.2880  140.9866  171.2185 C.ar    1  UNL1        0.0205
     19 C         140.3031  140.0185  170.6330 C.ar    1  UNL1        0.1006
     20 N         140.2433  139.8155  169.1481 N.ar    1  UNL1       -0.2252
     21 C         141.1684  140.5805  168.2486 C.ar    1  UNL1        0.1629
     22 O         140.7493  139.1590  157.8537 O.3     1  UNL1       -0.4791
     23 C         141.2183  137.8665  157.2539 C.3     1  UNL1        0.1687
     24 C         142.5005  137.2443  157.7215 C.3     1  UNL1        0.0609
     25 C         142.9694  135.9518  157.1218 C.3     1  UNL1        0.0758
     26 N         142.1561  135.2817  156.0544 N.3     1  UNL1       -0.2737
     27 C         140.8739  135.9039  155.5868 C.3     1  UNL1        0.0758
     28 C         140.4050  137.1964  156.1865 C.3     1  UNL1        0.0609
     29 C         142.6250  133.9892  155.4546 C.3     1  UNL1        0.0575
     30 C         143.7582  133.0441  155.7245 C.3     1  UNL1        0.0160
     31 C         143.2882  132.1615  154.6064 C.3     1  UNL1        0.0028
     32 C         142.1550  133.1065  154.3365 C.3     1  UNL1        0.0160
@<TRIPOS>BOND
     1    15    16    1
     2    16    17   ar
     3    17    18   ar
     4    18    19   ar
     5    19    20   ar
     6    20    21   ar
     7    21     7    1
     8     7     8   ar
     9     8     9   ar
    10     9    10    1
    11     9    11   ar
    12    11     1    1
    13     1     2   ar
    14     2     3   ar
    15     3     4   ar
    16     4    22    1
    17    22    23    1
    18    23    24    1
    19    24    25    1
    20    25    26    1
    21    26    29    1
    22    29    30    1
    23    30    31    1
    24    31    32    1
    25    26    27    1
    26    27    28    1
    27     4     5   ar
    28     5     6   ar
    29    11    12   ar
    30    12    13   ar
    31    13    14    2
    32    21    16   ar
    33    13     7   ar
    34     6     1   ar
    35    28    23    1
    36    32    29    1
@<TRIPOS>MOLECULE
*****
 32 36 0 0 0
SMALL
GASTEIGER

@<TRIPOS>ATOM
      1 C         143.2066  139.7950  159.9841 C.ar    1  UNL1        0.0015
      2 C         144.1005  138.9802  160.8713 C.ar    1  UNL1        0.0032
      3 C         143.5241  138.2450  162.0448 C.ar    1  UNL1        0.0369
      4 C         142.0538  138.3245  162.3312 C.ar    1  UNL1        0.1384
      5 C         141.1599  139.1393  161.4440 C.ar    1  UNL1        0.0369
      6 C         141.7364  139.8746  160.2704 C.ar    1  UNL1        0.0032
      7 N         144.9358  142.0007  156.4635 N.ar    1  UNL1       -0.1773
      8 N         144.9058  142.6511  157.8148 N.ar    1  UNL1       -0.1656
      9 C         144.3294  141.9159  158.9884 C.ar    1  UNL1        0.0796
     10 C         144.2994  142.5662  160.3397 C.3     1  UNL1        0.0539
     11 C         143.7830  140.5302  158.8106 C.ar    1  UNL1        0.0201
     12 C         143.8131  139.8799  157.4592 C.ar    1  UNL1        0.0638
     13 C         144.3895  140.6152  156.2857 C.ar    1  UNL1        0.2818
     14 O         144.4195  139.9648  154.9343 O.2     1  UNL1       -0.2651
     15 C         147.9092  142.1254  156.0847 C.3     1  UNL1        0.0342
     16 C         146.9989  142.7983  155.1006 C.ar    1  UNL1        0.0141
     17 C         147.5753  143.5336  153.9271 C.ar    1  UNL1        0.0004
     18 C         146.6650  144.2066  152.9429 C.ar    1  UNL1        0.0205
     19 C         145.1783  144.1442  153.1323 C.ar    1  UNL1        0.1006
     20 N         144.6020  143.4090  154.3058 N.ar    1  UNL1       -0.2252
     21 C         145.5123  142.7360  155.2899 C.ar    1  UNL1        0.1629
     22 O         141.4774  137.5893  163.5047 O.3     1  UNL1       -0.4791
     23 C         141.1051  138.3384  164.7498 C.3     1  UNL1        0.1687
     24 C         142.1773  138.8677  165.6554 C.3     1  UNL1        0.0609
     25 C         141.8051  139.6168  166.9006 C.3     1  UNL1        0.0758
     26 N         140.3606  139.8365  167.2400 N.3     1  UNL1       -0.2737
     27 C         139.2885  139.3072  166.3344 C.3     1  UNL1        0.0758
     28 C         139.6607  138.5581  165.0893 C.3     1  UNL1        0.0609
     29 C         139.9884  140.5856  168.4852 C.3     1  UNL1        0.0575
     30 C         139.0808  140.3222  169.6501 C.3     1  UNL1        0.0160
     31 C         139.4619  141.6449  170.2460 C.3     1  UNL1        0.0028
     32 C         140.3695  141.9084  169.0811 C.3     1  UNL1        0.0160
@<TRIPOS>BOND
     1    15    16    1
     2    16    17   ar
     3    17    18   ar
     4    18    19   ar
     5    19    20   ar
     6    20    21   ar
     7    21     7    1
     8     7     8   ar
     9     8     9   ar
    10     9    10    1
    11     9    11   ar
    12    11     1    1
    13     1     2   ar
    14     2     3   ar
    15     3     4   ar
    16     4    22    1
    17    22    23    1
    18    23    24    1
    19    24    25    1
    20    25    26    1
    21    26    29    1
    22    29    30    1
    23    30    31    1
    24    31    32    1
    25    26    27    1
    26    27    28    1
    27     4     5   ar
    28     5     6   ar
    29    11    12   ar
    30    12    13   ar
    31    13    14    2
    32    21    16   ar
    33    13     7   ar
    34     6     1   ar
    35    28    23    1
    36    32    29    1
@<TRIPOS>MOLECULE
*****
 32 36 0 0 0
SMALL
GASTEIGER

@<TRIPOS>ATOM
      1 C         139.1849  142.2043  160.0980 C.ar    1  UNL1        0.0015
      2 C         138.1376  142.6314  161.0833 C.ar    1  UNL1        0.0032
      3 C         137.8058  141.7531  162.2531 C.ar    1  UNL1        0.0369
      4 C         138.5212  140.4476  162.4376 C.ar    1  UNL1        0.1384
      5 C         139.5685  140.0206  161.4523 C.ar    1  UNL1        0.0369
      6 C         139.9003  140.8990  160.2825 C.ar    1  UNL1        0.0032
      7 N         140.1803  144.8393  156.5887 N.ar    1  UNL1       -0.1773
      8 N         139.0828  143.8231  156.4760 N.ar    1  UNL1       -0.1656
      9 C         138.7510  142.9448  157.6458 C.ar    1  UNL1        0.0796
     10 C         137.6535  141.9285  157.5331 C.3     1  UNL1        0.0539
     11 C         139.5167  143.0827  158.9283 C.ar    1  UNL1        0.0201
     12 C         140.6142  144.0989  159.0409 C.ar    1  UNL1        0.0638
     13 C         140.9461  144.9773  157.8711 C.ar    1  UNL1        0.2818
     14 O         142.0436  145.9935  157.9837 O.2     1  UNL1       -0.2651
     15 C         138.9600  147.5712  156.3702 C.3     1  UNL1        0.0342
     16 C         139.9020  147.0836  155.3096 C.ar    1  UNL1        0.0141
     17 C         140.2338  147.9619  154.1398 C.ar    1  UNL1        0.0004
     18 C         141.1758  147.4742  153.0792 C.ar    1  UNL1        0.0205
     19 C         141.7860  146.1083  153.1884 C.ar    1  UNL1        0.1006
     20 N         141.4541  145.2301  154.3582 N.ar    1  UNL1       -0.2252
     21 C         140.5122  145.7177  155.4188 C.ar    1  UNL1        0.1629
     22 O         138.1894  139.5693  163.6074 O.3     1  UNL1       -0.4791
     23 C         138.6733  139.9334  164.9797 C.3     1  UNL1        0.1687
     24 C         138.2710  139.1022  166.1618 C.3     1  UNL1        0.0609
     25 C         138.7549  139.4663  167.5341 C.3     1  UNL1        0.0758
     26 N         139.6410  140.6615  167.7244 N.3     1  UNL1       -0.2737
     27 C         140.0433  141.4926  166.5423 C.3     1  UNL1        0.0758
     28 C         139.5594  141.1285  165.1700 C.3     1  UNL1        0.0609
     29 C         140.1249  141.0255  169.0968 C.3     1  UNL1        0.0575
     30 C         140.6697  140.2611  170.2668 C.3     1  UNL1        0.0160
     31 C         140.8092  141.5404  171.0375 C.3     1  UNL1        0.0028
     32 C         140.2644  142.3048  169.8676 C.3     1  UNL1        0.0160
@<TRIPOS>BOND
     1    15    16    1
     2    16    17   ar
     3    17    18   ar
     4    18    19   ar
     5    19    20   ar
     6    20    21   ar
     7    21     7    1
     8     7     8   ar
     9     8     9   ar
    10     9    10    1
    11     9    11   ar
    12    11     1    1
    13     1     2   ar
    14     2     3   ar
    15     3     4   ar
    16     4    22    1
    17    22    23    1
    18    23    24    1
    19    24    25    1
    20    25    26    1
    21    26    29    1
    22    29    30    1
    23    30    31    1
    24    31    32    1
    25    26    27    1
    26    27    28    1
    27     4     5   ar
    28     5     6   ar
    29    11    12   ar
    30    12    13   ar
    31    13    14    2
    32    21    16   ar
    33    13     7   ar
    34     6     1   ar
    35    28    23    1
    36    32    29    1
@<TRIPOS>MOLECULE
*****
 32 36 0 0 0
SMALL
GASTEIGER

@<TRIPOS>ATOM
      1 C         139.0900  142.1393  160.1110 C.ar    1  UNL1        0.0015
      2 C         139.8807  140.8648  160.0954 C.ar    1  UNL1        0.0032
      3 C         139.6787  139.8435  161.1753 C.ar    1  UNL1        0.0369
      4 C         138.6859  140.0968  162.2709 C.ar    1  UNL1        0.1384
      5 C         137.8951  141.3713  162.2865 C.ar    1  UNL1        0.0369
      6 C         138.0972  142.3926  161.2065 C.ar    1  UNL1        0.0032
      7 N         139.6960  145.2032  156.8714 N.ar    1  UNL1       -0.1773
      8 N         140.3598  145.3803  158.2048 N.ar    1  UNL1       -0.1656
      9 C         140.1577  144.3590  159.2847 C.ar    1  UNL1        0.0796
     10 C         140.8215  144.5361  160.6182 C.3     1  UNL1        0.0539
     11 C         139.2920  143.1606  159.0312 C.ar    1  UNL1        0.0201
     12 C         138.6282  142.9834  157.6977 C.ar    1  UNL1        0.0638
     13 C         138.8303  144.0048  156.6178 C.ar    1  UNL1        0.2818
     14 O         138.1666  143.8277  155.2843 O.2     1  UNL1       -0.2651
     15 C         141.6952  144.7051  154.6907 C.3     1  UNL1        0.0342
     16 C         140.8977  145.9755  154.7012 C.ar    1  UNL1        0.0141
     17 C         141.0997  146.9968  153.6214 C.ar    1  UNL1        0.0004
     18 C         140.3021  148.2671  153.6318 C.ar    1  UNL1        0.0205
     19 C         139.3025  148.5162  154.7221 C.ar    1  UNL1        0.1006
     20 N         139.1005  147.4948  155.8019 N.ar    1  UNL1       -0.2252
     21 C         139.8981  146.2245  155.7915 C.ar    1  UNL1        0.1629
     22 O         138.4839  139.0755  163.3507 O.3     1  UNL1       -0.4791
     23 C         138.8857  139.3867  164.7620 C.3     1  UNL1        0.1687
     24 C         138.0999  138.8211  165.9076 C.3     1  UNL1        0.0609
     25 C         138.5017  139.1323  167.3189 C.3     1  UNL1        0.0758
     26 N         139.6894  140.0091  167.5845 N.3     1  UNL1       -0.2737
     27 C         140.4752  140.5748  166.4389 C.3     1  UNL1        0.0758
     28 C         140.0733  140.2636  165.0277 C.3     1  UNL1        0.0609
     29 C         140.0912  140.3203  168.9958 C.3     1  UNL1        0.0575
     30 C         141.1498  139.8182  169.9325 C.3     1  UNL1        0.0160
     31 C         140.6594  140.7604  170.9916 C.3     1  UNL1        0.0028
     32 C         139.6009  141.2626  170.0550 C.3     1  UNL1        0.0160
@<TRIPOS>BOND
     1    15    16    1
     2    16    17   ar
     3    17    18   ar
     4    18    19   ar
     5    19    20   ar
     6    20    21   ar
     7    21     7    1
     8     7     8   ar
     9     8     9   ar
    10     9    10    1
    11     9    11   ar
    12    11     1    1
    13     1     2   ar
    14     2     3   ar
    15     3     4   ar
    16     4    22    1
    17    22    23    1
    18    23    24    1
    19    24    25    1
    20    25    26    1
    21    26    29    1
    22    29    30    1
    23    30    31    1
    24    31    32    1
    25    26    27    1
    26    27    28    1
    27     4     5   ar
    28     5     6   ar
    29    11    12   ar
    30    12    13   ar
    31    13    14    2
    32    21    16   ar
    33    13     7   ar
    34     6     1   ar
    35    28    23    1
    36    32    29    1
@<TRIPOS>MOLECULE
*****
 32 36 0 0 0
SMALL
GASTEIGER

@<TRIPOS>ATOM
      1 C         140.0224  143.8840  159.8073 C.ar    1  UNL1        0.0015
      2 C         139.2367  143.1613  158.7535 C.ar    1  UNL1        0.0032
      3 C         139.2493  143.6558  157.3374 C.ar    1  UNL1        0.0369
      4 C         140.0474  144.8731  156.9751 C.ar    1  UNL1        0.1384
      5 C         140.8331  145.5958  158.0289 C.ar    1  UNL1        0.0369
      6 C         140.8205  145.1012  159.4450 C.ar    1  UNL1        0.0032
      7 N         139.9848  142.4004  164.0555 N.ar    1  UNL1       -0.1773
      8 N         141.0377  141.9184  163.1020 N.ar    1  UNL1       -0.1656
      9 C         141.0502  142.4129  161.6860 C.ar    1  UNL1        0.0796
     10 C         142.1031  141.9308  160.7325 C.3     1  UNL1        0.0539
     11 C         140.0098  143.3895  161.2233 C.ar    1  UNL1        0.0201
     12 C         138.9570  143.8715  162.1768 C.ar    1  UNL1        0.0638
     13 C         138.9445  143.3769  163.5929 C.ar    1  UNL1        0.2818
     14 O         137.8916  143.8589  164.5464 O.2     1  UNL1       -0.2651
     15 C         138.5070  139.8844  164.7528 C.3     1  UNL1        0.0342
     16 C         139.2335  140.6479  165.8202 C.ar    1  UNL1        0.0141
     17 C         139.2210  140.1534  167.2363 C.ar    1  UNL1        0.0004
     18 C         139.9474  140.9168  168.3038 C.ar    1  UNL1        0.0205
     19 C         140.6863  142.1748  167.9552 C.ar    1  UNL1        0.1006
     20 N         140.6988  142.6693  166.5391 N.ar    1  UNL1       -0.2252
     21 C         139.9723  141.9058  165.4716 C.ar    1  UNL1        0.1629
     22 O         140.0600  145.3676  155.5591 O.3     1  UNL1       -0.4791
     23 C         139.7935  146.8146  155.2676 C.3     1  UNL1        0.1687
     24 C         140.4196  147.4662  154.0704 C.3     1  UNL1        0.0609
     25 C         140.1532  148.9133  153.7789 C.3     1  UNL1        0.0758
     26 N         139.2606  149.7088  154.6846 N.3     1  UNL1       -0.2737
     27 C         138.6344  149.0572  155.8818 C.3     1  UNL1        0.0758
     28 C         138.9009  147.6101  156.1733 C.3     1  UNL1        0.0609
     29 C         138.9941  151.1559  154.3932 C.3     1  UNL1        0.0575
     30 C         138.5352  152.3336  155.2010 C.3     1  UNL1        0.0160
     31 C         138.6172  153.2023  153.9810 C.3     1  UNL1        0.0028
     32 C         139.0761  152.0247  153.1731 C.3     1  UNL1        0.0160
@<TRIPOS>BOND
     1    15    16    1
     2    16    17   ar
     3    17    18   ar
     4    18    19   ar
     5    19    20   ar
     6    20    21   ar
     7    21     7    1
     8     7     8   ar
     9     8     9   ar
    10     9    10    1
    11     9    11   ar
    12    11     1    1
    13     1     2   ar
    14     2     3   ar
    15     3     4   ar
    16     4    22    1
    17    22    23    1
    18    23    24    1
    19    24    25    1
    20    25    26    1
    21    26    29    1
    22    29    30    1
    23    30    31    1
    24    31    32    1
    25    26    27    1
    26    27    28    1
    27     4     5   ar
    28     5     6   ar
    29    11    12   ar
    30    12    13   ar
    31    13    14    2
    32    21    16   ar
    33    13     7   ar
    34     6     1   ar
    35    28    23    1
    36    32    29    1
@<TRIPOS>MOLECULE
*****
 32 36 0 0 0
SMALL
GASTEIGER

@<TRIPOS>ATOM
      1 C         140.6528  144.0847  159.8096 C.ar    1  UNL1        0.0015
      2 C         139.5648  143.4550  158.9912 C.ar    1  UNL1        0.0032
      3 C         139.3658  143.8685  157.5631 C.ar    1  UNL1        0.0369
      4 C         140.2548  144.9116  156.9534 C.ar    1  UNL1        0.1384
      5 C         141.3428  145.5413  157.7718 C.ar    1  UNL1        0.0369
      6 C         141.5418  145.1278  159.2000 C.ar    1  UNL1        0.0032
      7 N         141.2498  142.8444  164.0939 N.ar    1  UNL1       -0.1773
      8 N         140.6916  144.2000  163.7764 N.ar    1  UNL1       -0.1656
      9 C         140.4926  144.6134  162.3483 C.ar    1  UNL1        0.0796
     10 C         139.9344  145.9690  162.0307 C.3     1  UNL1        0.0539
     11 C         140.8518  143.6713  161.2377 C.ar    1  UNL1        0.0201
     12 C         141.4101  142.3157  161.5552 C.ar    1  UNL1        0.0638
     13 C         141.6091  141.9023  162.9834 C.ar    1  UNL1        0.2818
     14 O         142.1673  140.5468  163.3009 O.2     1  UNL1       -0.2651
     15 C         143.9553  143.0968  165.3656 C.3     1  UNL1        0.0342
     16 C         142.8015  142.5572  166.1579 C.ar    1  UNL1        0.0141
     17 C         143.0005  142.1438  167.5859 C.ar    1  UNL1        0.0004
     18 C         141.8467  141.6043  168.3782 C.ar    1  UNL1        0.0205
     19 C         140.4941  141.4781  167.7425 C.ar    1  UNL1        0.1006
     20 N         140.2951  141.8915  166.3144 N.ar    1  UNL1       -0.2252
     21 C         141.4489  142.4310  165.5221 C.ar    1  UNL1        0.1629
     22 O         140.0558  145.3250  155.5253 O.3     1  UNL1       -0.4791
     23 C         139.8076  146.7657  155.1892 C.3     1  UNL1        0.1687
     24 C         138.9283  147.6010  156.0718 C.3     1  UNL1        0.0609
     25 C         138.6801  149.0416  155.7357 C.3     1  UNL1        0.0758
     26 N         139.3112  149.6469  154.5169 N.3     1  UNL1       -0.2737
     27 C         140.1905  148.8116  153.6344 C.3     1  UNL1        0.0758
     28 C         140.4387  147.3709  153.9705 C.3     1  UNL1        0.0609
     29 C         139.0631  151.0876  154.1808 C.3     1  UNL1        0.0575
     30 C         139.0805  151.9009  152.9205 C.3     1  UNL1        0.0160
     31 C         138.7121  153.1249  153.7055 C.3     1  UNL1        0.0028
     32 C         138.6946  152.3116  154.9657 C.3     1  UNL1        0.0160
@<TRIPOS>BOND
     1    15    16    1
     2    16    17   ar
     3    17    18   ar
     4    18    19   ar
     5    19    20   ar
     6    20    21   ar
     7    21     7    1
     8     7     8   ar
     9     8     9   ar
    10     9    10    1
    11     9    11   ar
    12    11     1    1
    13     1     2   ar
    14     2     3   ar
    15     3     4   ar
    16     4    22    1
    17    22    23    1
    18    23    24    1
    19    24    25    1
    20    25    26    1
    21    26    29    1
    22    29    30    1
    23    30    31    1
    24    31    32    1
    25    26    27    1
    26    27    28    1
    27     4     5   ar
    28     5     6   ar
    29    11    12   ar
    30    12    13   ar
    31    13    14    2
    32    21    16   ar
    33    13     7   ar
    34     6     1   ar
    35    28    23    1
    36    32    29    1
@<TRIPOS>MOLECULE
*****
 32 36 0 0 0
SMALL
GASTEIGER

@<TRIPOS>ATOM
      1 C         142.6882  140.9165  162.0173 C.ar    1  UNL1        0.0015
      2 C         143.5136  139.8736  161.3236 C.ar    1  UNL1        0.0032
      3 C         143.6447  139.8926  159.8295 C.ar    1  UNL1        0.0369
      4 C         142.9505  140.9545  159.0290 C.ar    1  UNL1        0.1384
      5 C         142.1252  141.9973  159.7228 C.ar    1  UNL1        0.0369
      6 C         141.9941  141.9783  161.2170 C.ar    1  UNL1        0.0032
      7 N         142.2948  140.8596  166.4997 N.ar    1  UNL1       -0.1773
      8 N         143.4195  141.6141  165.8551 N.ar    1  UNL1       -0.1656
      9 C         143.5507  141.6331  164.3610 C.ar    1  UNL1        0.0796
     10 C         144.6755  142.3876  163.7164 C.3     1  UNL1        0.0539
     11 C         142.5571  140.8975  163.5114 C.ar    1  UNL1        0.0201
     12 C         141.4323  140.1430  164.1561 C.ar    1  UNL1        0.0638
     13 C         141.3011  140.1240  165.6503 C.ar    1  UNL1        0.2818
     14 O         140.1764  139.3695  166.2949 O.2     1  UNL1       -0.2651
     15 C         140.5444  142.8691  167.8775 C.3     1  UNL1        0.0342
     16 C         141.2885  141.8454  168.6828 C.ar    1  UNL1        0.0141
     17 C         141.1574  141.8264  170.1769 C.ar    1  UNL1        0.0004
     18 C         141.9014  140.8027  170.9821 C.ar    1  UNL1        0.0205
     19 C         142.7766  139.7980  170.2933 C.ar    1  UNL1        0.1006
     20 N         142.9077  139.8169  168.7992 N.ar    1  UNL1       -0.2252
     21 C         142.1636  140.8407  167.9939 C.ar    1  UNL1        0.1629
     22 O         143.0817  140.9734  157.5349 O.3     1  UNL1       -0.4791
     23 C         144.4245  141.1903  156.9026 C.3     1  UNL1        0.1687
     24 C         145.3788  142.1865  157.4916 C.3     1  UNL1        0.0609
     25 C         146.7216  142.4033  156.8593 C.3     1  UNL1        0.0758
     26 N         147.1102  141.6239  155.6380 N.3     1  UNL1       -0.2737
     27 C         146.1559  140.6277  155.0490 C.3     1  UNL1        0.0758
     28 C         144.8131  140.4109  155.6813 C.3     1  UNL1        0.0609
     29 C         148.4530  141.8407  155.0057 C.3     1  UNL1        0.0575
     30 C         148.9307  142.2422  153.6415 C.3     1  UNL1        0.0160
     31 C         150.3520  142.1474  154.1114 C.3     1  UNL1        0.0028
     32 C         149.8744  141.7460  155.4755 C.3     1  UNL1        0.0160
@<TRIPOS>BOND
     1    15    16    1
     2    16    17   ar
     3    17    18   ar
     4    18    19   ar
     5    19    20   ar
     6    20    21   ar
     7    21     7    1
     8     7     8   ar
     9     8     9   ar
    10     9    10    1
    11     9    11   ar
    12    11     1    1
    13     1     2   ar
    14     2     3   ar
    15     3     4   ar
    16     4    22    1
    17    22    23    1
    18    23    24    1
    19    24    25    1
    20    25    26    1
    21    26    29    1
    22    29    30    1
    23    30    31    1
    24    31    32    1
    25    26    27    1
    26    27    28    1
    27     4     5   ar
    28     5     6   ar
    29    11    12   ar
    30    12    13   ar
    31    13    14    2
    32    21    16   ar
    33    13     7   ar
    34     6     1   ar
    35    28    23    1
    36    32    29    1
