@<TRIPOS>MOLECULE
*****
 40 42 0 0 0
SMALL
GASTEIGER

@<TRIPOS>ATOM
      1 C         142.2266  138.4699  165.3423 C.3     1  UNL1        0.1524
      2 N         140.7180  140.1588  166.6157 N.am    1  UNL1       -0.3048
      3 C         141.8970  139.2318  166.5916 C.2     1  UNL1        0.2383
      4 O         142.7463  139.0666  167.8169 O.2     1  UNL1       -0.2736
      5 H         140.1606  140.2672  165.8114 H       1  UNL1        0.1494
      6 C         139.4372  139.7778  168.5800 C.3     1  UNL1        0.0001
      7 C         140.0365  141.1483  168.6919 C.3     1  UNL1        0.0015
      8 C         140.2477  140.2333  167.5223 C.3     1  UNL1        0.0001
      9 C         139.4672  141.5166  170.0299 C.3     1  UNL1        0.0017
     10 C         139.9430  142.8974  170.3720 C.3     1  UNL1        0.0001
     11 C         140.8063  143.3825  169.2453 C.3     1  UNL1        0.0016
     12 C         140.8641  142.3015  168.2070 C.3     1  UNL1        0.0165
     13 C         141.6173  142.3630  166.9113 C.3     1  UNL1        0.0016
     14 C         140.3883  140.9207  167.8650 C.3     1  UNL1        0.0715
     15 C         139.5250  140.4356  168.9916 C.3     1  UNL1        0.0196
     16 N         141.2687  137.4429  164.8153 N.3     1  UNL1       -0.1620
     17 H         140.9493  136.8993  165.6170 H       1  UNL1        0.1504
     18 S         140.0416  137.8752  164.0686 S.O2    1  UNL1        0.0964
     19 O         139.2013  137.5703  165.2732 O.2     1  UNL1       -0.1413
     20 O         140.3171  138.0880  163.3515 O.2     1  UNL1       -0.1413
     21 N         138.8146  138.3074  163.3220 N.3     1  UNL1       -0.1655
     22 H         138.0207  137.8500  163.7703 H       1  UNL1        0.1502
     23 C         138.4734  139.7645  163.2195 C.3     1  UNL1        0.1126
     24 C         138.5786  140.4683  161.8991 C.2     1  UNL1        0.0662
     25 O         139.8519  140.3955  161.1096 O.co2   1  UNL1       -0.5478
     26 O         137.4103  141.2450  161.3680 O.co2   1  UNL1       -0.5478
     27 C         138.0271  140.5178  164.4375 C.3     1  UNL1        0.0232
     28 C         138.5550  141.8968  164.7018 C.3     1  UNL1        0.0032
     29 C         137.6621  143.0887  164.5234 C.3     1  UNL1        0.0169
     30 C         138.0610  144.1915  163.5882 C.3     1  UNL1        0.0651
     31 N         137.7292  144.0938  162.1286 N.3     1  UNL1       -0.3211
     32 H         138.2490  143.3210  161.7128 H       1  UNL1        0.1189
     33 H         137.9844  144.9647  161.6630 H       1  UNL1        0.1189
     34 C         143.5143  138.7351  164.6200 C.3     1  UNL1        0.0268
     35 C         143.8236  140.1153  164.1206 C.3     1  UNL1        0.0019
     36 C         142.7250  140.9801  163.5773 C.3     1  UNL1        0.0001
     37 C         143.0343  142.3603  163.0780 C.3     1  UNL1        0.0000
     38 C         144.4422  142.8757  163.1219 C.3     1  UNL1        0.0000
     39 C         145.5409  142.0109  163.6651 C.3     1  UNL1        0.0000
     40 C         145.2316  140.6307  164.1645 C.3     1  UNL1        0.0001
@<TRIPOS>UNITY_ATOM_ATTR
25 1
charge -1
@<TRIPOS>BOND
     1     6     7    1
     2     7     8    1
     3     7     9    1
     4     9    10    1
     5    10    11    1
     6    11    12    1
     7    12    13    1
     8    12    14    1
     9    14     2    1
    10     2     3   am
    11     3     4    2
    12     3     1    1
    13     1    34    1
    14    34    35    1
    15    35    36    1
    16    36    37    1
    17    37    38    1
    18    38    39    1
    19    39    40    1
    20     1    16    1
    21    16    18    1
    22    18    19    2
    23    18    20    2
    24    18    21    1
    25    21    23    1
    26    23    27    1
    27    27    28    1
    28    28    29    1
    29    29    30    1
    30    30    31    1
    31    23    24    1
    32    24    25   ar
    33    24    26   ar
    34    14    15    1
    35    12     7    1
    36    40    35    1
    37    15     9    1
    38     2     5    1
    39    16    17    1
    40    21    22    1
    41    31    32    1
    42    31    33    1
@<TRIPOS>MOLECULE
*****
 40 42 0 0 0
SMALL
GASTEIGER

@<TRIPOS>ATOM
      1 C         141.9971  139.5726  166.1501 C.3     1  UNL1        0.1524
      2 N         141.3523  141.9013  165.1958 N.am    1  UNL1       -0.3048
      3 C         140.9734  140.4964  165.5599 C.2     1  UNL1        0.2383
      4 O         139.5707  140.0153  165.3337 O.2     1  UNL1       -0.2736
      5 H         142.2729  142.2171  165.3442 H       1  UNL1        0.1494
      6 C         139.7366  143.4362  166.0191 C.3     1  UNL1        0.0001
      7 C         139.6499  143.4512  164.5218 C.3     1  UNL1        0.0015
      8 C         140.6075  142.5968  165.2981 C.3     1  UNL1        0.0001
      9 C         138.5518  144.4640  164.3862 C.3     1  UNL1        0.0017
     10 C         138.2760  144.6559  162.9243 C.3     1  UNL1        0.0001
     11 C         139.2037  143.7617  162.1563 C.3     1  UNL1        0.0016
     12 C         140.0528  143.0172  163.1436 C.3     1  UNL1        0.0165
     13 C         141.1178  142.0146  162.8111 C.3     1  UNL1        0.0016
     14 C         140.3286  142.8252  164.6055 C.3     1  UNL1        0.0715
     15 C         139.4009  143.7194  165.3735 C.3     1  UNL1        0.0196
     16 N         142.7063  138.5816  165.2753 N.3     1  UNL1       -0.1620
     17 H         141.9882  138.0984  164.7357 H       1  UNL1        0.1504
     18 S         143.7411  139.0513  164.2961 S.O2    1  UNL1        0.0964
     19 O         144.8040  138.8901  165.3422 O.2     1  UNL1       -0.1413
     20 O         143.3260  139.1948  163.6309 O.2     1  UNL1       -0.1413
     21 N         144.7758  139.5209  163.3170 N.3     1  UNL1       -0.1655
     22 H         144.5883  139.0402  162.4371 H       1  UNL1        0.1502
     23 C         144.8961  140.9811  162.9956 C.3     1  UNL1        0.1126
     24 C         144.5541  141.4774  161.6220 C.2     1  UNL1        0.0662
     25 O         143.9026  140.5572  160.6327 O.co2   1  UNL1       -0.5478
     26 O         144.8637  142.8939  161.2377 O.co2   1  UNL1       -0.5478
     27 C         145.3585  141.9451  164.0478 C.3     1  UNL1        0.0232
     28 C         144.3550  142.7377  164.8319 C.3     1  UNL1        0.0032
     29 C         144.3269  144.2331  164.7191 C.3     1  UNL1        0.0169
     30 C         143.2277  144.9069  163.9525 C.3     1  UNL1        0.0651
     31 N         143.3320  145.0520  162.4632 N.3     1  UNL1       -0.3211
     32 H         144.1061  145.6761  162.2358 H       1  UNL1        0.1189
     33 H         142.4628  145.4413  162.0978 H       1  UNL1        0.1189
     34 C         142.3117  139.6396  167.6152 C.3     1  UNL1        0.0268
     35 C         141.6009  140.6290  168.4904 C.3     1  UNL1        0.0019
     36 C         140.2998  140.2583  169.1383 C.3     1  UNL1        0.0001
     37 C         139.5890  141.2476  170.0135 C.3     1  UNL1        0.0000
     38 C         140.1793  142.6077  170.2408 C.3     1  UNL1        0.0000
     39 C         141.4804  142.9784  169.5930 C.3     1  UNL1        0.0000
     40 C         142.1912  141.9891  168.7178 C.3     1  UNL1        0.0001
@<TRIPOS>UNITY_ATOM_ATTR
25 1
charge -1
@<TRIPOS>BOND
     1     6     7    1
     2     7     8    1
     3     7     9    1
     4     9    10    1
     5    10    11    1
     6    11    12    1
     7    12    13    1
     8    12    14    1
     9    14     2    1
    10     2     3   am
    11     3     4    2
    12     3     1    1
    13     1    34    1
    14    34    35    1
    15    35    36    1
    16    36    37    1
    17    37    38    1
    18    38    39    1
    19    39    40    1
    20     1    16    1
    21    16    18    1
    22    18    19    2
    23    18    20    2
    24    18    21    1
    25    21    23    1
    26    23    27    1
    27    27    28    1
    28    28    29    1
    29    29    30    1
    30    30    31    1
    31    23    24    1
    32    24    25   ar
    33    24    26   ar
    34    14    15    1
    35    12     7    1
    36    40    35    1
    37    15     9    1
    38     2     5    1
    39    16    17    1
    40    21    22    1
    41    31    32    1
    42    31    33    1
@<TRIPOS>MOLECULE
*****
 40 42 0 0 0
SMALL
GASTEIGER

@<TRIPOS>ATOM
      1 C         144.3070  139.3273  163.3965 C.3     1  UNL1        0.1524
      2 N         141.7439  139.3166  163.8209 N.am    1  UNL1       -0.3048
      3 C         143.1346  138.9635  164.2584 C.2     1  UNL1        0.2383
      4 O         143.3528  138.2466  165.5578 O.2     1  UNL1       -0.2736
      5 H         141.6007  139.7872  162.9681 H       1  UNL1        0.1494
      6 C         140.3109  137.4395  164.0797 C.3     1  UNL1        0.0001
      7 C         139.8673  138.4833  165.0612 C.3     1  UNL1        0.0015
      8 C         141.0174  138.6571  164.1142 C.3     1  UNL1        0.0001
      9 C         138.7279  137.7236  165.6734 C.3     1  UNL1        0.0017
     10 C         138.1021  138.5930  166.7234 C.3     1  UNL1        0.0001
     11 C         138.8547  139.8901  166.7602 C.3     1  UNL1        0.0016
     12 C         139.9456  139.8222  165.7329 C.3     1  UNL1        0.0165
     13 C         140.9402  140.9035  165.4304 C.3     1  UNL1        0.0016
     14 C         140.5714  138.9528  164.6828 C.3     1  UNL1        0.0715
     15 C         139.8188  137.6558  164.6461 C.3     1  UNL1        0.0196
     16 N         144.5384  138.6063  162.1015 N.3     1  UNL1       -0.1620
     17 H         144.7416  137.6350  162.3376 H       1  UNL1        0.1504
     18 S         143.4647  138.5820  161.0544 S.O2    1  UNL1        0.0964
     19 O         144.0648  139.7966  160.4107 O.2     1  UNL1       -0.1413
     20 O         143.0171  137.9525  161.2517 O.2     1  UNL1       -0.1413
     21 N         142.3909  138.5576  160.0073 N.3     1  UNL1       -0.1655
     22 H         142.1800  137.5765  159.8246 H       1  UNL1        0.1502
     23 C         141.0806  139.2424  160.2606 C.3     1  UNL1        0.1126
     24 C         141.0174  140.7396  160.3271 C.2     1  UNL1        0.0662
     25 O         140.8454  141.5395  159.0699 O.co2   1  UNL1       -0.5478
     26 O         141.1260  141.4368  161.6507 O.co2   1  UNL1       -0.5478
     27 C         139.8335  138.4299  160.4475 C.3     1  UNL1        0.0232
     28 C         138.5059  139.1145  160.5841 C.3     1  UNL1        0.0032
     29 C         137.8225  139.1664  161.9183 C.3     1  UNL1        0.0169
     30 C         137.9133  140.4047  162.7598 C.3     1  UNL1        0.0651
     31 N         136.7149  141.2927  162.9192 N.3     1  UNL1       -0.3211
     32 H         136.4820  141.7141  162.0199 H       1  UNL1        0.1189
     33 H         136.9237  142.0275  163.5951 H       1  UNL1        0.1189
     34 C         145.2481  140.4122  163.8294 C.3     1  UNL1        0.0268
     35 C         144.8154  141.8474  163.7722 C.3     1  UNL1        0.0019
     36 C         144.4768  142.5796  165.0368 C.3     1  UNL1        0.0001
     37 C         144.0441  144.0147  164.9797 C.3     1  UNL1        0.0000
     38 C         143.9501  144.7176  163.6579 C.3     1  UNL1        0.0000
     39 C         144.2888  143.9854  162.3933 C.3     1  UNL1        0.0000
     40 C         144.7214  142.5503  162.4504 C.3     1  UNL1        0.0001
@<TRIPOS>UNITY_ATOM_ATTR
25 1
charge -1
@<TRIPOS>BOND
     1     6     7    1
     2     7     8    1
     3     7     9    1
     4     9    10    1
     5    10    11    1
     6    11    12    1
     7    12    13    1
     8    12    14    1
     9    14     2    1
    10     2     3   am
    11     3     4    2
    12     3     1    1
    13     1    34    1
    14    34    35    1
    15    35    36    1
    16    36    37    1
    17    37    38    1
    18    38    39    1
    19    39    40    1
    20     1    16    1
    21    16    18    1
    22    18    19    2
    23    18    20    2
    24    18    21    1
    25    21    23    1
    26    23    27    1
    27    27    28    1
    28    28    29    1
    29    29    30    1
    30    30    31    1
    31    23    24    1
    32    24    25   ar
    33    24    26   ar
    34    14    15    1
    35    12     7    1
    36    40    35    1
    37    15     9    1
    38     2     5    1
    39    16    17    1
    40    21    22    1
    41    31    32    1
    42    31    33    1
@<TRIPOS>MOLECULE
*****
 40 42 0 0 0
SMALL
GASTEIGER

@<TRIPOS>ATOM
      1 C         138.9609  139.2385  164.8139 C.3     1  UNL1        0.1524
      2 N         140.9426  140.3286  166.0922 N.am    1  UNL1       -0.3048
      3 C         139.6098  139.6404  166.1051 C.2     1  UNL1        0.2383
      4 O         138.9261  139.3540  167.4091 O.2     1  UNL1       -0.2736
      5 H         141.3913  140.5165  165.2363 H       1  UNL1        0.1494
      6 C         142.4273  139.3346  167.6582 C.3     1  UNL1        0.0001
      7 C         142.1026  140.7116  168.1567 C.3     1  UNL1        0.0015
      8 C         141.5543  140.1276  166.8886 C.3     1  UNL1        0.0001
      9 C         142.9293  140.6810  169.4079 C.3     1  UNL1        0.0017
     10 C         142.7625  141.9981  170.1061 C.3     1  UNL1        0.0001
     11 C         141.8326  142.8427  169.2864 C.3     1  UNL1        0.0016
     12 C         141.4248  142.0476  168.0816 C.3     1  UNL1        0.0165
     13 C         140.5013  142.5077  166.9928 C.3     1  UNL1        0.0016
     14 C         141.5917  140.7305  167.3834 C.3     1  UNL1        0.0715
     15 C         142.5215  139.8859  168.2032 C.3     1  UNL1        0.0196
     16 N         139.1748  137.8593  164.2642 N.3     1  UNL1       -0.1620
     17 H         138.3647  137.6451  163.6827 H       1  UNL1        0.1504
     18 S         140.3913  137.5613  163.4387 S.O2    1  UNL1        0.0964
     19 O         141.0398  136.9159  164.6274 O.2     1  UNL1       -0.1413
     20 O         140.2133  137.8557  162.7197 O.2     1  UNL1       -0.1413
     21 N         141.6077  137.2633  162.6132 N.3     1  UNL1       -0.1655
     22 H         141.2756  136.8985  161.7204 H       1  UNL1        0.1502
     23 C         142.5860  138.3557  162.2977 C.3     1  UNL1        0.1126
     24 C         142.7785  138.8034  160.8791 C.2     1  UNL1        0.0662
     25 O         141.6467  139.4495  160.1364 O.co2   1  UNL1       -0.5478
     26 O         144.1028  138.6051  160.2032 O.co2   1  UNL1       -0.5478
     27 C         143.3719  139.0005  163.4009 C.3     1  UNL1        0.0232
     28 C         143.2762  140.4807  163.6237 C.3     1  UNL1        0.0032
     29 C         144.1950  141.1531  164.6003 C.3     1  UNL1        0.0169
     30 C         145.1829  142.1744  164.1197 C.3     1  UNL1        0.0651
     31 N         146.2759  141.7735  163.1738 N.3     1  UNL1       -0.3211
     32 H         146.9117  141.1284  163.6428 H       1  UNL1        0.1189
     33 H         146.7904  142.6030  162.8777 H       1  UNL1        0.1189
     34 C         138.0978  140.2159  164.0723 C.3     1  UNL1        0.0268
     35 C         138.5163  141.6521  163.9611 C.3     1  UNL1        0.0019
     36 C         139.7916  142.0093  163.2569 C.3     1  UNL1        0.0001
     37 C         140.2101  143.4455  163.1457 C.3     1  UNL1        0.0000
     38 C         139.3532  144.5244  163.7387 C.3     1  UNL1        0.0000
     39 C         138.0779  144.1671  164.4429 C.3     1  UNL1        0.0000
     40 C         137.6594  142.7310  164.5541 C.3     1  UNL1        0.0001
@<TRIPOS>UNITY_ATOM_ATTR
25 1
charge -1
@<TRIPOS>BOND
     1     6     7    1
     2     7     8    1
     3     7     9    1
     4     9    10    1
     5    10    11    1
     6    11    12    1
     7    12    13    1
     8    12    14    1
     9    14     2    1
    10     2     3   am
    11     3     4    2
    12     3     1    1
    13     1    34    1
    14    34    35    1
    15    35    36    1
    16    36    37    1
    17    37    38    1
    18    38    39    1
    19    39    40    1
    20     1    16    1
    21    16    18    1
    22    18    19    2
    23    18    20    2
    24    18    21    1
    25    21    23    1
    26    23    27    1
    27    27    28    1
    28    28    29    1
    29    29    30    1
    30    30    31    1
    31    23    24    1
    32    24    25   ar
    33    24    26   ar
    34    14    15    1
    35    12     7    1
    36    40    35    1
    37    15     9    1
    38     2     5    1
    39    16    17    1
    40    21    22    1
    41    31    32    1
    42    31    33    1
@<TRIPOS>MOLECULE
*****
 40 42 0 0 0
SMALL
GASTEIGER

@<TRIPOS>ATOM
      1 C         143.4001  142.3657  165.3972 C.3     1  UNL1        0.1524
      2 N         141.2292  141.3650  164.3796 N.am    1  UNL1       -0.3048
      3 C         142.6633  141.2085  164.7908 C.2     1  UNL1        0.2383
      4 O         143.3604  139.8947  164.5955 O.2     1  UNL1       -0.2736
      5 H         140.7717  142.2272  164.5078 H       1  UNL1        0.1494
      6 C         140.9323  140.4598  162.2032 C.3     1  UNL1        0.0001
      7 C         140.1555  139.6021  163.1574 C.3     1  UNL1        0.0015
      8 C         140.9556  140.8022  163.5689 C.3     1  UNL1        0.0001
      9 C         139.6106  138.6220  162.1612 C.3     1  UNL1        0.0017
     10 C         138.7690  137.6263  162.9031 C.3     1  UNL1        0.0001
     11 C         138.7938  137.9910  164.3578 C.3     1  UNL1        0.0016
     12 C         139.6507  139.2121  164.5150 C.3     1  UNL1        0.0165
     13 C         139.9501  139.9191  165.8036 C.3     1  UNL1        0.0016
     14 C         140.4923  140.2078  163.7732 C.3     1  UNL1        0.0715
     15 C         140.4675  139.8430  162.3184 C.3     1  UNL1        0.0196
     16 N         144.0602  143.3813  164.5123 N.3     1  UNL1       -0.1620
     17 H         144.6875  142.8686  163.8926 H       1  UNL1        0.1504
     18 S         143.2255  144.2734  163.6421 S.O2    1  UNL1        0.0964
     19 O         143.7009  145.4696  164.4122 O.2     1  UNL1       -0.1413
     20 O         142.8729  143.7713  163.1331 O.2     1  UNL1       -0.1413
     21 N         142.3907  145.1655  162.7718 N.3     1  UNL1       -0.1655
     22 H         142.5956  144.9100  161.8059 H       1  UNL1        0.1502
     23 C         140.8973  145.1659  162.9121 C.3     1  UNL1        0.1126
     24 C         140.0353  145.5736  161.7542 C.2     1  UNL1        0.0662
     25 O         139.6006  147.0019  161.6092 O.co2   1  UNL1       -0.5478
     26 O         139.6081  144.5531  160.7412 O.co2   1  UNL1       -0.5478
     27 C         140.2657  144.7585  164.2103 C.3     1  UNL1        0.0232
     28 C         138.7726  144.6705  164.3230 C.3     1  UNL1        0.0032
     29 C         138.1008  143.3299  164.3591 C.3     1  UNL1        0.0169
     30 C         137.7521  142.6310  163.0786 C.3     1  UNL1        0.0651
     31 N         136.9576  141.3591  163.1107 N.3     1  UNL1       -0.3211
     32 H         137.5064  140.6267  163.5609 H       1  UNL1        0.1189
     33 H         136.7301  141.0762  162.1574 H       1  UNL1        0.1189
     34 C         143.4770  142.5073  166.8885 C.3     1  UNL1        0.0268
     35 C         142.4461  141.8509  167.7584 C.3     1  UNL1        0.0019
     36 C         141.1645  142.5646  168.0715 C.3     1  UNL1        0.0001
     37 C         140.1336  141.9083  168.9413 C.3     1  UNL1        0.0000
     38 C         140.3844  140.5382  169.4979 C.3     1  UNL1        0.0000
     39 C         141.6660  139.8244  169.1848 C.3     1  UNL1        0.0000
     40 C         142.6969  140.4808  168.3150 C.3     1  UNL1        0.0001
@<TRIPOS>UNITY_ATOM_ATTR
25 1
charge -1
@<TRIPOS>BOND
     1     6     7    1
     2     7     8    1
     3     7     9    1
     4     9    10    1
     5    10    11    1
     6    11    12    1
     7    12    13    1
     8    12    14    1
     9    14     2    1
    10     2     3   am
    11     3     4    2
    12     3     1    1
    13     1    34    1
    14    34    35    1
    15    35    36    1
    16    36    37    1
    17    37    38    1
    18    38    39    1
    19    39    40    1
    20     1    16    1
    21    16    18    1
    22    18    19    2
    23    18    20    2
    24    18    21    1
    25    21    23    1
    26    23    27    1
    27    27    28    1
    28    28    29    1
    29    29    30    1
    30    30    31    1
    31    23    24    1
    32    24    25   ar
    33    24    26   ar
    34    14    15    1
    35    12     7    1
    36    40    35    1
    37    15     9    1
    38     2     5    1
    39    16    17    1
    40    21    22    1
    41    31    32    1
    42    31    33    1
@<TRIPOS>MOLECULE
*****
 40 42 0 0 0
SMALL
GASTEIGER

@<TRIPOS>ATOM
      1 C         144.3818  140.4562  162.1764 C.3     1  UNL1        0.1524
      2 N         142.9730  140.2578  164.3502 N.am    1  UNL1       -0.3048
      3 C         144.3071  140.3488  163.6706 C.2     1  UNL1        0.2383
      4 O         145.5664  140.3324  164.4853 O.2     1  UNL1       -0.2736
      5 H         142.1464  140.2686  163.8154 H       1  UNL1        0.1494
      6 C         143.0663  138.5133  165.9602 C.3     1  UNL1        0.0001
      7 C         142.8856  139.8033  166.7039 C.3     1  UNL1        0.0015
      8 C         142.9826  139.7024  165.2105 C.3     1  UNL1        0.0001
      9 C         142.8653  139.2415  168.0946 C.3     1  UNL1        0.0017
     10 C         142.6882  140.3820  169.0527 C.3     1  UNL1        0.0001
     11 C         142.5990  141.6486  168.2542 C.3     1  UNL1        0.0016
     12 C         142.7210  141.2909  166.8026 C.3     1  UNL1        0.0165
     13 C         142.6848  142.2522  165.6516 C.3     1  UNL1        0.0016
     14 C         142.8982  140.1505  165.8444 C.3     1  UNL1        0.0715
     15 C         142.9873  138.8838  166.6430 C.3     1  UNL1        0.0196
     16 N         144.3863  139.2147  161.3344 N.3     1  UNL1       -0.1620
     17 H         145.2460  138.7121  161.5555 H       1  UNL1        0.1504
     18 S         143.2645  138.2257  161.4504 S.O2    1  UNL1        0.0964
     19 O         142.8127  138.5756  160.0635 O.2     1  UNL1       -0.1413
     20 O         143.3532  137.9182  162.1804 O.2     1  UNL1       -0.1413
     21 N         142.1427  137.2368  161.5664 N.3     1  UNL1       -0.1655
     22 H         142.5215  136.4159  162.0386 H       1  UNL1        0.1502
     23 C         140.8845  137.6116  162.2918 C.3     1  UNL1        0.1126
     24 C         139.8807  138.5130  161.6360 C.2     1  UNL1        0.0662
     25 O         138.6765  137.9279  160.9595 O.co2   1  UNL1       -0.5478
     26 O         140.0811  139.9993  161.6566 O.co2   1  UNL1       -0.5478
     27 C         140.6300  137.0852  163.6732 C.3     1  UNL1        0.0232
     28 C         139.3959  137.4998  164.4183 C.3     1  UNL1        0.0032
     29 C         139.4719  138.5863  165.4496 C.3     1  UNL1        0.0169
     30 C         139.1518  140.0023  165.0722 C.3     1  UNL1        0.0651
     31 N         139.2885  141.0982  166.0873 N.3     1  UNL1       -0.3211
     32 H         138.6035  140.9606  166.8305 H       1  UNL1        0.1189
     33 H         139.1265  141.9996  165.6383 H       1  UNL1        0.1189
     34 C         144.4520  141.8051  161.5240 C.3     1  UNL1        0.0268
     35 C         143.6952  142.9610  162.1081 C.3     1  UNL1        0.0019
     36 C         142.2103  143.0578  161.9188 C.3     1  UNL1        0.0001
     37 C         141.4535  144.2137  162.5028 C.3     1  UNL1        0.0000
     38 C         142.1816  145.2728  163.2763 C.3     1  UNL1        0.0000
     39 C         143.6664  145.1760  163.4656 C.3     1  UNL1        0.0000
     40 C         144.4233  144.0201  162.8815 C.3     1  UNL1        0.0001
@<TRIPOS>UNITY_ATOM_ATTR
25 1
charge -1
@<TRIPOS>BOND
     1     6     7    1
     2     7     8    1
     3     7     9    1
     4     9    10    1
     5    10    11    1
     6    11    12    1
     7    12    13    1
     8    12    14    1
     9    14     2    1
    10     2     3   am
    11     3     4    2
    12     3     1    1
    13     1    34    1
    14    34    35    1
    15    35    36    1
    16    36    37    1
    17    37    38    1
    18    38    39    1
    19    39    40    1
    20     1    16    1
    21    16    18    1
    22    18    19    2
    23    18    20    2
    24    18    21    1
    25    21    23    1
    26    23    27    1
    27    27    28    1
    28    28    29    1
    29    29    30    1
    30    30    31    1
    31    23    24    1
    32    24    25   ar
    33    24    26   ar
    34    14    15    1
    35    12     7    1
    36    40    35    1
    37    15     9    1
    38     2     5    1
    39    16    17    1
    40    21    22    1
    41    31    32    1
    42    31    33    1
@<TRIPOS>MOLECULE
*****
 40 42 0 0 0
SMALL
GASTEIGER

@<TRIPOS>ATOM
      1 C         143.2127  138.8062  165.4957 C.3     1  UNL1        0.1524
      2 N         142.0857  140.7980  166.7253 N.am    1  UNL1       -0.3048
      3 C         142.8210  139.4914  166.7712 C.2     1  UNL1        0.2383
      4 O         143.1647  138.8702  168.0925 O.2     1  UNL1       -0.2736
      5 H         141.8601  141.2058  165.8581 H       1  UNL1        0.1494
      6 C         143.1092  142.2886  168.2664 C.3     1  UNL1        0.0001
      7 C         141.7220  142.0094  168.7636 C.3     1  UNL1        0.0015
      8 C         142.2982  141.4205  167.5102 C.3     1  UNL1        0.0001
      9 C         141.7673  142.8604  169.9980 C.3     1  UNL1        0.0017
     10 C         140.4428  142.7415  170.6920 C.3     1  UNL1        0.0001
     11 C         139.5789  141.8169  169.8865 C.3     1  UNL1        0.0016
     12 C         140.3694  141.3644  168.6948 C.3     1  UNL1        0.0165
     13 C         139.8914  140.4309  167.6224 C.3     1  UNL1        0.0016
     14 C         141.6939  141.4834  168.0008 C.3     1  UNL1        0.0715
     15 C         142.5579  142.4080  168.8062 C.3     1  UNL1        0.0196
     16 N         144.3593  139.3314  164.6835 N.3     1  UNL1       -0.1620
     17 H         144.7435  138.5387  164.1694 H       1  UNL1        0.1504
     18 S         144.1309  140.4261  163.6838 S.O2    1  UNL1        0.0964
     19 O         144.2598  139.4331  162.5669 O.2     1  UNL1       -0.1413
     20 O         144.0350  141.0789  164.1311 O.2     1  UNL1       -0.1413
     21 N         143.9025  141.5208  162.6840 N.3     1  UNL1       -0.1655
     22 H         144.0911  141.1233  161.7638 H       1  UNL1        0.1502
     23 C         142.5636  142.1920  162.5996 C.3     1  UNL1        0.1126
     24 C         142.4799  143.6815  162.4437 C.2     1  UNL1        0.0662
     25 O         143.7314  144.4883  162.2627 O.co2   1  UNL1       -0.5478
     26 O         141.1445  144.3643  162.4689 O.co2   1  UNL1       -0.5478
     27 C         141.3085  141.3735  162.6709 C.3     1  UNL1        0.0232
     28 C         140.4871  141.3680  163.9260 C.3     1  UNL1        0.0032
     29 C         139.1506  142.0484  163.9507 C.3     1  UNL1        0.0169
     30 C         138.1833  141.8426  162.8230 C.3     1  UNL1        0.0651
     31 N         136.8166  141.2893  163.0987 N.3     1  UNL1       -0.3211
     32 H         136.8994  140.3282  163.4301 H       1  UNL1        0.1189
     33 H         136.2634  141.3071  162.2419 H       1  UNL1        0.1189
     34 C         142.4579  137.5956  165.0323 C.3     1  UNL1        0.0268
     35 C         141.1992  137.7573  164.2323 C.3     1  UNL1        0.0019
     36 C         141.2548  137.7327  162.7336 C.3     1  UNL1        0.0001
     37 C         139.9963  137.8944  161.9336 C.3     1  UNL1        0.0000
     38 C         138.6822  138.0807  162.6324 C.3     1  UNL1        0.0000
     39 C         138.6266  138.1053  164.1312 C.3     1  UNL1        0.0000
     40 C         139.8851  137.9436  164.9312 C.3     1  UNL1        0.0001
@<TRIPOS>UNITY_ATOM_ATTR
25 1
charge -1
@<TRIPOS>BOND
     1     6     7    1
     2     7     8    1
     3     7     9    1
     4     9    10    1
     5    10    11    1
     6    11    12    1
     7    12    13    1
     8    12    14    1
     9    14     2    1
    10     2     3   am
    11     3     4    2
    12     3     1    1
    13     1    34    1
    14    34    35    1
    15    35    36    1
    16    36    37    1
    17    37    38    1
    18    38    39    1
    19    39    40    1
    20     1    16    1
    21    16    18    1
    22    18    19    2
    23    18    20    2
    24    18    21    1
    25    21    23    1
    26    23    27    1
    27    27    28    1
    28    28    29    1
    29    29    30    1
    30    30    31    1
    31    23    24    1
    32    24    25   ar
    33    24    26   ar
    34    14    15    1
    35    12     7    1
    36    40    35    1
    37    15     9    1
    38     2     5    1
    39    16    17    1
    40    21    22    1
    41    31    32    1
    42    31    33    1
@<TRIPOS>MOLECULE
*****
 40 42 0 0 0
SMALL
GASTEIGER

@<TRIPOS>ATOM
      1 C         138.9692  139.5155  165.7803 C.3     1  UNL1        0.1524
      2 N         140.5944  141.2727  166.7906 N.am    1  UNL1       -0.3048
      3 C         139.6106  140.1555  166.9756 C.2     1  UNL1        0.2383
      4 O         139.2684  139.6784  168.3559 O.2     1  UNL1       -0.2736
      5 H         140.8190  141.5859  165.8847 H       1  UNL1        0.1494
      6 C         140.0647  143.0327  168.2960 C.3     1  UNL1        0.0001
      7 C         141.3909  142.4685  168.7116 C.3     1  UNL1        0.0015
      8 C         140.5938  141.9656  167.5448 C.3     1  UNL1        0.0001
      9 C         141.6417  143.3677  169.8857 C.3     1  UNL1        0.0017
     10 C         142.9595  142.9834  170.4907 C.3     1  UNL1        0.0001
     11 C         143.5230  141.8468  169.6905 C.3     1  UNL1        0.0016
     12 C         142.5536  141.5285  168.5909 C.3     1  UNL1        0.0165
     13 C         142.7180  140.4582  167.5530 C.3     1  UNL1        0.0016
     14 C         141.2359  141.9128  167.9860 C.3     1  UNL1        0.0715
     15 C         140.6723  143.0494  168.7862 C.3     1  UNL1        0.0196
     16 N         137.7812  140.1613  165.1308 N.3     1  UNL1       -0.1620
     17 H         137.3405  140.7474  165.8397 H       1  UNL1        0.1504
     18 S         137.9655  141.0184  163.9136 S.O2    1  UNL1        0.0964
     19 O         138.2357  142.2052  164.7903 O.2     1  UNL1       -0.1413
     20 O         137.8499  140.5166  163.3051 O.2     1  UNL1       -0.1413
     21 N         138.1498  141.8755  162.6965 N.3     1  UNL1       -0.1655
     22 H         137.4315  142.5987  162.7341 H       1  UNL1        0.1502
     23 C         139.4561  142.5744  162.4623 C.3     1  UNL1        0.1126
     24 C         139.4783  144.0467  162.1760 C.2     1  UNL1        0.0662
     25 O         139.4126  144.5365  160.7598 O.co2   1  UNL1       -0.5478
     26 O         139.5660  145.0292  163.3061 O.co2   1  UNL1       -0.5478
     27 C         140.7405  141.8011  162.5142 C.3     1  UNL1        0.0232
     28 C         141.8014  142.1750  163.5064 C.3     1  UNL1        0.0032
     29 C         143.2141  142.3878  163.0494 C.3     1  UNL1        0.0169
     30 C         143.7460  143.7801  162.8804 C.3     1  UNL1        0.0651
     31 N         142.9795  144.7824  162.0694 N.3     1  UNL1       -0.3211
     32 H         142.9608  144.4872  161.0933 H       1  UNL1        0.1189
     33 H         143.4314  145.6941  162.1403 H       1  UNL1        0.1189
     34 C         139.5158  138.2297  165.2344 C.3     1  UNL1        0.0268
     35 C         140.5870  138.2558  164.1846 C.3     1  UNL1        0.0019
     36 C         141.9988  138.5941  164.5620 C.3     1  UNL1        0.0001
     37 C         143.0700  138.6202  163.5123 C.3     1  UNL1        0.0000
     38 C         142.7294  138.3080  162.0852 C.3     1  UNL1        0.0000
     39 C         141.3176  137.9698  161.7078 C.3     1  UNL1        0.0000
     40 C         140.2464  137.9437  162.7575 C.3     1  UNL1        0.0001
@<TRIPOS>UNITY_ATOM_ATTR
25 1
charge -1
@<TRIPOS>BOND
     1     6     7    1
     2     7     8    1
     3     7     9    1
     4     9    10    1
     5    10    11    1
     6    11    12    1
     7    12    13    1
     8    12    14    1
     9    14     2    1
    10     2     3   am
    11     3     4    2
    12     3     1    1
    13     1    34    1
    14    34    35    1
    15    35    36    1
    16    36    37    1
    17    37    38    1
    18    38    39    1
    19    39    40    1
    20     1    16    1
    21    16    18    1
    22    18    19    2
    23    18    20    2
    24    18    21    1
    25    21    23    1
    26    23    27    1
    27    27    28    1
    28    28    29    1
    29    29    30    1
    30    30    31    1
    31    23    24    1
    32    24    25   ar
    33    24    26   ar
    34    14    15    1
    35    12     7    1
    36    40    35    1
    37    15     9    1
    38     2     5    1
    39    16    17    1
    40    21    22    1
    41    31    32    1
    42    31    33    1
@<TRIPOS>MOLECULE
*****
 40 42 0 0 0
SMALL
GASTEIGER

@<TRIPOS>ATOM
      1 C         142.9481  138.6724  165.4801 C.3     1  UNL1        0.1524
      2 N         141.6964  140.5980  166.6946 N.am    1  UNL1       -0.3048
      3 C         142.5958  139.3986  166.7444 C.2     1  UNL1        0.2383
      4 O         143.1428  138.9253  168.0584 O.2     1  UNL1       -0.2736
      5 H         141.3374  140.9086  165.8321 H       1  UNL1        0.1494
      6 C         142.6696  142.3040  168.0313 C.3     1  UNL1        0.0001
      7 C         141.3785  141.9038  168.6816 C.3     1  UNL1        0.0015
      8 C         141.9035  141.2960  167.4148 C.3     1  UNL1        0.0001
      9 C         141.4342  142.8416  169.8510 C.3     1  UNL1        0.0017
     10 C         140.2039  142.6216  170.6806 C.3     1  UNL1        0.0001
     11 C         139.3879  141.5479  170.0239 C.3     1  UNL1        0.0016
     12 C         140.1139  141.1043  168.7884 C.3     1  UNL1        0.0165
     13 C         139.6556  140.0468  167.8284 C.3     1  UNL1        0.0016
     14 C         141.3441  141.3243  167.9589 C.3     1  UNL1        0.0715
     15 C         142.1601  142.3980  168.6156 C.3     1  UNL1        0.0196
     16 N         141.9939  137.6710  164.8994 N.3     1  UNL1       -0.1620
     17 H         141.5817  137.1674  165.6848 H       1  UNL1        0.1504
     18 S         140.8573  138.1314  164.0356 S.O2    1  UNL1        0.0964
     19 O         141.5693  137.6118  162.8219 O.2     1  UNL1       -0.1413
     20 O         140.3441  138.4585  164.5504 O.2     1  UNL1       -0.1413
     21 N         139.7207  138.5917  163.1718 N.3     1  UNL1       -0.1655
     22 H         138.8699  138.1909  163.5664 H       1  UNL1        0.1502
     23 C         139.4641  140.0582  162.9887 C.3     1  UNL1        0.1126
     24 C         138.1528  140.6491  163.4148 C.2     1  UNL1        0.0662
     25 O         137.7826  140.6837  164.8680 O.co2   1  UNL1       -0.5478
     26 O         137.2117  141.2052  162.3877 O.co2   1  UNL1       -0.5478
     27 C         140.5187  140.9340  162.3796 C.3     1  UNL1        0.0232
     28 C         141.1497  142.0248  163.1932 C.3     1  UNL1        0.0032
     29 C         140.6669  143.4382  163.0553 C.3     1  UNL1        0.0169
     30 C         139.8794  143.8472  161.8459 C.3     1  UNL1        0.0651
     31 N         138.3844  143.9431  161.9217 N.3     1  UNL1       -0.3211
     32 H         137.9914  143.0145  162.0753 H       1  UNL1        0.1189
     33 H         138.0234  144.3247  161.0474 H       1  UNL1        0.1189
     34 C         144.2545  138.9476  164.7963 C.3     1  UNL1        0.0268
     35 C         144.3946  140.1415  163.8991 C.3     1  UNL1        0.0019
     36 C         144.6631  141.4948  164.4879 C.3     1  UNL1        0.0001
     37 C         144.8032  142.6887  163.5907 C.3     1  UNL1        0.0000
     38 C         144.6748  142.5294  162.1048 C.3     1  UNL1        0.0000
     39 C         144.4063  141.1762  161.5160 C.3     1  UNL1        0.0000
     40 C         144.2662  139.9822  162.4131 C.3     1  UNL1        0.0001
@<TRIPOS>UNITY_ATOM_ATTR
25 1
charge -1
@<TRIPOS>BOND
     1     6     7    1
     2     7     8    1
     3     7     9    1
     4     9    10    1
     5    10    11    1
     6    11    12    1
     7    12    13    1
     8    12    14    1
     9    14     2    1
    10     2     3   am
    11     3     4    2
    12     3     1    1
    13     1    34    1
    14    34    35    1
    15    35    36    1
    16    36    37    1
    17    37    38    1
    18    38    39    1
    19    39    40    1
    20     1    16    1
    21    16    18    1
    22    18    19    2
    23    18    20    2
    24    18    21    1
    25    21    23    1
    26    23    27    1
    27    27    28    1
    28    28    29    1
    29    29    30    1
    30    30    31    1
    31    23    24    1
    32    24    25   ar
    33    24    26   ar
    34    14    15    1
    35    12     7    1
    36    40    35    1
    37    15     9    1
    38     2     5    1
    39    16    17    1
    40    21    22    1
    41    31    32    1
    42    31    33    1
