@<TRIPOS>MOLECULE
*****
 30 34 0 0 0
SMALL
GASTEIGER

@<TRIPOS>ATOM
      1 C         140.4968  141.0844  166.8420 C.ar    1  UNL1        0.0000
      2 C         140.7184  139.6035  166.7522 C.ar    1  UNL1        0.0031
      3 C         140.1569  138.8298  165.5964 C.ar    1  UNL1        0.0366
      4 C         139.3738  139.5369  164.5302 C.ar    1  UNL1        0.1360
      5 C         139.1521  141.0177  164.6200 C.ar    1  UNL1        0.0357
      6 C         139.7137  141.7915  165.7759 C.ar    1  UNL1        0.0007
      7 C         138.3690  141.7248  163.5538 C.3     1  UNL1        0.1580
      8 C         137.6106  142.5641  162.5687 C.3     1  UNL1        0.2351
      9 O         137.6397  143.9844  163.0505 O.2     1  UNL1       -0.4478
     10 C         138.4160  144.0229  164.3333 C.2     1  UNL1        0.2770
     11 N         138.6931  145.2434  165.1599 N.pl3   1  UNL1       -0.3133
     12 N         138.8668  142.6264  164.6445 N.2     1  UNL1       -0.2202
     13 C         137.8074  140.9511  162.3979 C.3     1  UNL1        0.1141
     14 C         138.0259  140.7538  162.6954 C.3     1  UNL1        0.1501
     15 O         137.7963  140.9612  162.3827 O.3     1  UNL1       -0.3532
     16 C         138.0259  140.7538  162.6954 C.3     1  UNL1        0.1501
     17 C         138.0291  139.4703  162.3082 C.3     1  UNL1        0.1398
     18 C         137.9718  138.0657  161.7851 C.3     1  UNL1        0.0438
     19 C         137.2260  139.6896  161.0603 C.3     1  UNL1        0.0438
     20 O         138.8122  138.7632  163.3744 O.3     1  UNL1       -0.4826
     21 H         138.3529  146.1210  164.8713 H       1  UNL1        0.1466
     22 H         139.2150  145.1669  165.9912 H       1  UNL1        0.1466
     23 C         143.0459  142.4266  169.5716 C.ar    1  UNL1        0.1387
     24 C         142.1814  143.4054  170.3096 C.ar    1  UNL1        0.0369
     25 C         140.7555  143.6105  169.8919 C.ar    1  UNL1        0.0031
     26 C         140.1939  142.8368  168.7359 C.ar    1  UNL1        0.0002
     27 C         141.0583  141.8580  167.9979 C.ar    1  UNL1        0.0030
     28 C         142.4843  141.6530  168.4157 C.ar    1  UNL1        0.0369
     29 C         145.3127  143.3975  170.3895 C.3     1  UNL1        0.2525
     30 O         144.4718  142.2215  169.9893 O.3     1  UNL1       -0.4714
@<TRIPOS>BOND
     1    29    30    1
     2    30    23    1
     3    23    24   ar
     4    24    25   ar
     5    25    26   ar
     6    26    27   ar
     7    27     1    1
     8     1     2   ar
     9     2     3   ar
    10     3     4   ar
    11     4     5   ar
    12     5     6   ar
    13     5     7    1
    14     7     8    1
    15     8     9    1
    16     9    10    1
    17    10    11    1
    18    10    12    2
    19     7    13    1
    20    13    14    1
    21    14    15    1
    22    15    16    1
    23    13    17    1
    24    17    18    1
    25    17    19    1
    26    17    20    1
    27    27    28   ar
    28    28    23   ar
    29     6     1   ar
    30    12     7    1
    31    16    13    1
    32    20     4    1
    33    11    21    1
    34    11    22    1
@<TRIPOS>MOLECULE
*****
 30 34 0 0 0
SMALL
GASTEIGER

@<TRIPOS>ATOM
      1 C         142.7113  141.4737  164.5762 C.ar    1  UNL1        0.0000
      2 C         143.4821  142.2303  165.6172 C.ar    1  UNL1        0.0031
      3 C         143.0129  142.2352  167.0419 C.ar    1  UNL1        0.0366
      4 C         141.7730  141.4834  167.4257 C.ar    1  UNL1        0.1360
      5 C         141.0022  140.7268  166.3849 C.ar    1  UNL1        0.0357
      6 C         141.4713  140.7220  164.9601 C.ar    1  UNL1        0.0007
      7 C         139.7622  139.9750  166.7687 C.3     1  UNL1        0.1580
      8 C         138.5108  139.1814  167.0017 C.3     1  UNL1        0.2351
      9 O         138.0826  138.5951  165.6890 O.2     1  UNL1       -0.4478
     10 C         139.0693  139.0263  164.6448 C.2     1  UNL1        0.2770
     11 N         139.0258  138.6677  163.1891 N.pl3   1  UNL1       -0.3133
     12 N         140.1074  139.8792  165.3121 N.2     1  UNL1       -0.2202
     13 C         139.2930  139.9799  168.1934 C.3     1  UNL1        0.1141
     14 C         139.6390  140.1896  168.0863 C.3     1  UNL1        0.1501
     15 O         139.2753  139.9691  168.1989 O.3     1  UNL1       -0.3532
     16 C         139.6390  140.1896  168.0863 C.3     1  UNL1        0.1501
     17 C         140.0638  140.7364  169.2343 C.3     1  UNL1        0.1398
     18 C         140.4506  141.2999  170.5695 C.3     1  UNL1        0.0438
     19 C         138.9582  140.1804  170.0819 C.3     1  UNL1        0.0438
     20 O         141.3038  141.4882  168.8504 O.3     1  UNL1       -0.4826
     21 H         138.3002  138.0990  162.8437 H       1  UNL1        0.1466
     22 H         139.7227  139.0011  162.5789 H       1  UNL1        0.1466
     23 C         143.9257  140.1634  161.0325 C.ar    1  UNL1        0.1387
     24 C         144.1188  141.4592  160.3021 C.ar    1  UNL1        0.0369
     25 C         143.8427  142.7599  160.9963 C.ar    1  UNL1        0.0031
     26 C         143.3735  142.7647  162.4211 C.ar    1  UNL1        0.0002
     27 C         143.1804  141.4689  163.1515 C.ar    1  UNL1        0.0030
     28 C         143.4566  140.1682  162.4572 C.ar    1  UNL1        0.0369
     29 C         143.2936  137.6889  160.5557 C.3     1  UNL1        0.2525
     30 O         144.2019  138.8627  160.3383 O.3     1  UNL1       -0.4714
@<TRIPOS>BOND
     1    29    30    1
     2    30    23    1
     3    23    24   ar
     4    24    25   ar
     5    25    26   ar
     6    26    27   ar
     7    27     1    1
     8     1     2   ar
     9     2     3   ar
    10     3     4   ar
    11     4     5   ar
    12     5     6   ar
    13     5     7    1
    14     7     8    1
    15     8     9    1
    16     9    10    1
    17    10    11    1
    18    10    12    2
    19     7    13    1
    20    13    14    1
    21    14    15    1
    22    15    16    1
    23    13    17    1
    24    17    18    1
    25    17    19    1
    26    17    20    1
    27    27    28   ar
    28    28    23   ar
    29     6     1   ar
    30    12     7    1
    31    16    13    1
    32    20     4    1
    33    11    21    1
    34    11    22    1
@<TRIPOS>MOLECULE
*****
 30 34 0 0 0
SMALL
GASTEIGER

@<TRIPOS>ATOM
      1 C         142.8600  142.0815  165.3398 C.ar    1  UNL1        0.0000
      2 C         143.5816  142.6165  166.5411 C.ar    1  UNL1        0.0031
      3 C         143.0515  142.3439  167.9175 C.ar    1  UNL1        0.0366
      4 C         141.7997  141.5363  168.0927 C.ar    1  UNL1        0.1360
      5 C         141.0780  141.0013  166.8915 C.ar    1  UNL1        0.0357
      6 C         141.6082  141.2739  165.5150 C.ar    1  UNL1        0.0007
      7 C         139.8262  140.1936  167.0667 C.3     1  UNL1        0.1580
      8 C         138.5697  139.3746  167.0854 C.3     1  UNL1        0.2351
      9 O         138.2012  139.0585  165.6660 O.2     1  UNL1       -0.4478
     10 C         139.2300  139.6821  164.7702 C.2     1  UNL1        0.2770
     11 N         139.2509  139.6159  163.2719 N.pl3   1  UNL1       -0.3133
     12 N         140.2343  140.3837  165.6358 N.2     1  UNL1       -0.2202
     13 C         139.2960  139.9210  168.4431 C.3     1  UNL1        0.1141
     14 C         139.6453  140.1463  168.3943 C.3     1  UNL1        0.1501
     15 O         139.2782  139.9095  168.4456 O.3     1  UNL1       -0.3532
     16 C         139.6453  140.1463  168.3943 C.3     1  UNL1        0.1501
     17 C         140.0177  140.4560  169.6443 C.3     1  UNL1        0.1398
     18 C         140.3439  140.7454  171.0795 C.3     1  UNL1        0.0438
     19 C         138.8791  139.7489  170.3181 C.3     1  UNL1        0.0438
     20 O         141.2695  141.2636  169.4691 O.3     1  UNL1       -0.4826
     21 H         138.5436  139.1286  162.7908 H       1  UNL1        0.1466
     22 H         139.9720  140.0597  162.7696 H       1  UNL1        0.1466
     23 C         143.1388  143.4876  161.6391 C.ar    1  UNL1        0.1387
     24 C         144.4504  142.8995  161.2105 C.ar    1  UNL1        0.0369
     25 C         145.2319  142.0387  162.1583 C.ar    1  UNL1        0.0031
     26 C         144.7018  141.7660  163.5348 C.ar    1  UNL1        0.0002
     27 C         143.3901  142.3541  163.9634 C.ar    1  UNL1        0.0030
     28 C         142.6086  143.2149  163.0155 C.ar    1  UNL1        0.0369
     29 C         141.0870  145.0034  161.1467 C.3     1  UNL1        0.2525
     30 O         142.3573  144.3483  160.6913 O.3     1  UNL1       -0.4714
@<TRIPOS>BOND
     1    29    30    1
     2    30    23    1
     3    23    24   ar
     4    24    25   ar
     5    25    26   ar
     6    26    27   ar
     7    27     1    1
     8     1     2   ar
     9     2     3   ar
    10     3     4   ar
    11     4     5   ar
    12     5     6   ar
    13     5     7    1
    14     7     8    1
    15     8     9    1
    16     9    10    1
    17    10    11    1
    18    10    12    2
    19     7    13    1
    20    13    14    1
    21    14    15    1
    22    15    16    1
    23    13    17    1
    24    17    18    1
    25    17    19    1
    26    17    20    1
    27    27    28   ar
    28    28    23   ar
    29     6     1   ar
    30    12     7    1
    31    16    13    1
    32    20     4    1
    33    11    21    1
    34    11    22    1
@<TRIPOS>MOLECULE
*****
 30 34 0 0 0
SMALL
GASTEIGER

@<TRIPOS>ATOM
      1 C         139.4905  139.8744  165.5764 C.ar    1  UNL1        0.0000
      2 C         138.7931  139.4624  166.8390 C.ar    1  UNL1        0.0031
      3 C         139.3446  139.8783  168.1704 C.ar    1  UNL1        0.0366
      4 C         140.5936  140.7061  168.2395 C.ar    1  UNL1        0.1360
      5 C         141.2910  141.1181  166.9770 C.ar    1  UNL1        0.0357
      6 C         140.7395  140.7023  165.6455 C.ar    1  UNL1        0.0007
      7 C         142.5399  141.9460  167.0461 C.3     1  UNL1        0.1580
      8 C         143.7909  142.7691  166.9581 C.3     1  UNL1        0.2351
      9 O         144.1330  142.9390  165.5075 O.2     1  UNL1       -0.4478
     10 C         143.0935  142.2210  164.6989 C.2     1  UNL1        0.2770
     11 N         143.0467  142.1323  163.2024 N.pl3   1  UNL1       -0.3133
     12 N         142.1089  141.6072  165.6497 N.2     1  UNL1       -0.2202
     13 C         143.0915  142.3618  168.3775 C.3     1  UNL1        0.1141
     14 C         142.7430  142.1308  168.3583 C.3     1  UNL1        0.1501
     15 O         143.1093  142.3736  168.3785 O.3     1  UNL1       -0.3532
     16 C         142.7430  142.1308  168.3583 C.3     1  UNL1        0.1501
     17 C         142.3940  141.9498  169.6400 C.3     1  UNL1        0.1398
     18 C         142.0943  141.8083  171.1028 C.3     1  UNL1        0.0438
     19 C         143.5389  142.7285  170.2171 C.3     1  UNL1        0.0438
     20 O         141.1451  141.1220  169.5709 O.3     1  UNL1       -0.4826
     21 H         143.7424  142.5710  162.6612 H       1  UNL1        0.1466
     22 H         142.3203  141.6353  162.7612 H       1  UNL1        0.1466
     23 C         137.8975  140.0804  161.9474 C.ar    1  UNL1        0.1387
     24 C         137.8359  138.6269  161.5820 C.ar    1  UNL1        0.0369
     25 C         138.3257  137.5893  162.5480 C.ar    1  UNL1        0.0031
     26 C         138.8773  138.0051  163.8796 C.ar    1  UNL1        0.0002
     27 C         138.9390  139.4586  164.2450 C.ar    1  UNL1        0.0030
     28 C         138.4490  140.4963  163.2789 C.ar    1  UNL1        0.0369
     29 C         138.3874  142.0098  160.2778 C.3     1  UNL1        0.2525
     30 O         137.4076  141.1181  160.9814 O.3     1  UNL1       -0.4714
@<TRIPOS>BOND
     1    29    30    1
     2    30    23    1
     3    23    24   ar
     4    24    25   ar
     5    25    26   ar
     6    26    27   ar
     7    27     1    1
     8     1     2   ar
     9     2     3   ar
    10     3     4   ar
    11     4     5   ar
    12     5     6   ar
    13     5     7    1
    14     7     8    1
    15     8     9    1
    16     9    10    1
    17    10    11    1
    18    10    12    2
    19     7    13    1
    20    13    14    1
    21    14    15    1
    22    15    16    1
    23    13    17    1
    24    17    18    1
    25    17    19    1
    26    17    20    1
    27    27    28   ar
    28    28    23   ar
    29     6     1   ar
    30    12     7    1
    31    16    13    1
    32    20     4    1
    33    11    21    1
    34    11    22    1
@<TRIPOS>MOLECULE
*****
 30 34 0 0 0
SMALL
GASTEIGER

@<TRIPOS>ATOM
      1 C         141.6807  141.0320  166.6579 C.ar    1  UNL1        0.0000
      2 C         142.9680  141.6695  166.2260 C.ar    1  UNL1        0.0031
      3 C         143.6198  141.2484  164.9424 C.ar    1  UNL1        0.0366
      4 C         142.9843  140.1899  164.0906 C.ar    1  UNL1        0.1360
      5 C         141.6971  139.5524  164.5224 C.ar    1  UNL1        0.0357
      6 C         141.0453  139.9734  165.8061 C.ar    1  UNL1        0.0007
      7 C         141.0616  138.4938  163.6706 C.3     1  UNL1        0.1580
      8 C         140.3126  137.4279  162.9270 C.3     1  UNL1        0.2351
      9 O         139.0854  137.0855  163.7188 O.2     1  UNL1       -0.4478
     10 C         139.0759  137.9398  164.9517 C.2     1  UNL1        0.2770
     11 N         138.0290  137.9262  166.0257 N.pl3   1  UNL1       -0.3133
     12 N         140.2973  138.8102  164.9220 N.2     1  UNL1       -0.2202
     13 C         141.7134  138.0727  162.3870 C.3     1  UNL1        0.1141
     14 C         141.8907  138.3680  162.6246 C.3     1  UNL1        0.1501
     15 O         141.7043  138.0576  162.3748 O.3     1  UNL1       -0.3532
     16 C         141.8907  138.3680  162.6246 C.3     1  UNL1        0.1501
     17 C         143.0007  138.7102  161.9551 C.3     1  UNL1        0.1398
     18 C         144.2135  139.0170  161.1276 C.3     1  UNL1        0.0438
     19 C         142.7864  137.7581  160.8158 C.3     1  UNL1        0.0438
     20 O         143.6361  139.7688  162.8069 O.3     1  UNL1       -0.4826
     21 H         137.2597  137.3159  165.9555 H       1  UNL1        0.1466
     22 H         138.1112  138.5276  166.8009 H       1  UNL1        0.1466
     23 C         139.6221  140.8719  170.0471 C.ar    1  UNL1        0.1387
     24 C         139.7253  142.2953  170.5090 C.ar    1  UNL1        0.0369
     25 C         140.4803  143.2976  169.6872 C.ar    1  UNL1        0.0031
     26 C         141.1322  142.8765  168.4035 C.ar    1  UNL1        0.0002
     27 C         141.0289  141.4531  167.9416 C.ar    1  UNL1        0.0030
     28 C         140.2739  140.4508  168.7634 C.ar    1  UNL1        0.0369
     29 C         137.4598  139.5045  170.4996 C.3     1  UNL1        0.2525
     30 O         138.8671  139.8696  170.8688 O.3     1  UNL1       -0.4714
@<TRIPOS>BOND
     1    29    30    1
     2    30    23    1
     3    23    24   ar
     4    24    25   ar
     5    25    26   ar
     6    26    27   ar
     7    27     1    1
     8     1     2   ar
     9     2     3   ar
    10     3     4   ar
    11     4     5   ar
    12     5     6   ar
    13     5     7    1
    14     7     8    1
    15     8     9    1
    16     9    10    1
    17    10    11    1
    18    10    12    2
    19     7    13    1
    20    13    14    1
    21    14    15    1
    22    15    16    1
    23    13    17    1
    24    17    18    1
    25    17    19    1
    26    17    20    1
    27    27    28   ar
    28    28    23   ar
    29     6     1   ar
    30    12     7    1
    31    16    13    1
    32    20     4    1
    33    11    21    1
    34    11    22    1
@<TRIPOS>MOLECULE
*****
 30 34 0 0 0
SMALL
GASTEIGER

@<TRIPOS>ATOM
      1 C         141.4560  139.9221  166.5719 C.ar    1  UNL1        0.0000
      2 C         142.8278  139.3165  166.6077 C.ar    1  UNL1        0.0031
      3 C         143.4359  138.7623  165.3534 C.ar    1  UNL1        0.0366
      4 C         142.6722  138.8138  164.0634 C.ar    1  UNL1        0.1360
      5 C         141.3004  139.4194  164.0277 C.ar    1  UNL1        0.0357
      6 C         140.6922  139.9736  165.2819 C.ar    1  UNL1        0.0007
      7 C         140.5367  139.4709  162.7377 C.3     1  UNL1        0.1580
      8 C         139.6577  139.5921  161.5282 C.3     1  UNL1        0.2351
      9 O         138.3807  140.2578  161.9482 O.2     1  UNL1       -0.4478
     10 C         138.4705  140.5480  163.4170 C.2     1  UNL1        0.2770
     11 N         137.4135  141.2085  164.2515 N.pl3   1  UNL1       -0.3133
     12 N         139.8030  140.0617  163.9050 N.2     1  UNL1       -0.2202
     13 C         141.1448  138.9168  161.4834 C.3     1  UNL1        0.1141
     14 C         141.3579  138.9024  161.8434 C.3     1  UNL1        0.1501
     15 O         141.1339  138.9175  161.4650 O.3     1  UNL1       -0.3532
     16 C         141.3579  138.9024  161.8434 C.3     1  UNL1        0.1501
     17 C         142.5166  138.3111  161.5192 C.3     1  UNL1        0.1398
     18 C         143.7750  137.6428  161.0504 C.3     1  UNL1        0.0438
     19 C         142.1900  138.1305  160.0663 C.3     1  UNL1        0.0438
     20 O         143.2803  138.2597  162.8092 O.3     1  UNL1       -0.4826
     21 H         136.5670  141.4942  163.8379 H       1  UNL1        0.1466
     22 H         137.5663  141.3564  165.2127 H       1  UNL1        0.1466
     23 C         140.9069  142.1653  169.7994 C.ar    1  UNL1        0.1387
     24 C         139.6316  141.5846  170.3346 C.ar    1  UNL1        0.0369
     25 C         138.9645  140.4497  169.6157 C.ar    1  UNL1        0.0031
     26 C         139.5726  139.8955  168.3614 C.ar    1  UNL1        0.0002
     27 C         140.8478  140.4762  167.8261 C.ar    1  UNL1        0.0030
     28 C         141.5150  141.6112  168.5452 C.ar    1  UNL1        0.0369
     29 C         143.0647  143.3091  170.6859 C.3     1  UNL1        0.2525
     30 O         141.5740  143.3002  170.5183 O.3     1  UNL1       -0.4714
@<TRIPOS>BOND
     1    29    30    1
     2    30    23    1
     3    23    24   ar
     4    24    25   ar
     5    25    26   ar
     6    26    27   ar
     7    27     1    1
     8     1     2   ar
     9     2     3   ar
    10     3     4   ar
    11     4     5   ar
    12     5     6   ar
    13     5     7    1
    14     7     8    1
    15     8     9    1
    16     9    10    1
    17    10    11    1
    18    10    12    2
    19     7    13    1
    20    13    14    1
    21    14    15    1
    22    15    16    1
    23    13    17    1
    24    17    18    1
    25    17    19    1
    26    17    20    1
    27    27    28   ar
    28    28    23   ar
    29     6     1   ar
    30    12     7    1
    31    16    13    1
    32    20     4    1
    33    11    21    1
    34    11    22    1
@<TRIPOS>MOLECULE
*****
 30 34 0 0 0
SMALL
GASTEIGER

@<TRIPOS>ATOM
      1 C         140.8199  142.6357  166.5922 C.ar    1  UNL1        0.0000
      2 C         139.6041  143.5128  166.6438 C.ar    1  UNL1        0.0031
      3 C         139.2464  144.3689  165.4652 C.ar    1  UNL1        0.0366
      4 C         140.1044  144.3478  164.2349 C.ar    1  UNL1        0.1360
      5 C         141.3201  143.4708  164.1833 C.ar    1  UNL1        0.0357
      6 C         141.6779  142.6146  165.3620 C.ar    1  UNL1        0.0007
      7 C         142.1780  143.4497  162.9531 C.3     1  UNL1        0.1580
      8 C         143.1263  143.3242  161.7976 C.3     1  UNL1        0.2351
      9 O         144.1933  142.3409  162.1783 O.2     1  UNL1       -0.4478
     10 C         143.9046  141.8588  163.5690 C.2     1  UNL1        0.2770
     11 N         144.7183  140.8659  164.3447 N.pl3   1  UNL1       -0.3133
     12 N         142.6590  142.5441  164.0479 N.2     1  UNL1       -0.2202
     13 C         141.8203  144.3058  161.7745 C.3     1  UNL1        0.1141
     14 C         141.5809  144.3116  162.1177 C.3     1  UNL1        0.1501
     15 O         141.8326  144.3055  161.7570 O.3     1  UNL1       -0.3532
     16 C         141.5809  144.3116  162.1177 C.3     1  UNL1        0.1501
     17 C         140.6046  145.1829  161.8261 C.3     1  UNL1        0.1398
     18 C         139.5610  146.1720  161.3989 C.3     1  UNL1        0.0438
     19 C         141.1001  145.5054  160.4475 C.3     1  UNL1        0.0438
     20 O         139.7466  145.2039  163.0563 O.3     1  UNL1       -0.4826
     21 H         145.5243  140.4687  163.9425 H       1  UNL1        0.1466
     22 H         144.4464  140.6114  165.2561 H       1  UNL1        0.1466
     23 C         140.4536  140.3554  169.8196 C.ar    1  UNL1        0.1387
     24 C         141.8931  140.0675  170.1281 C.ar    1  UNL1        0.0369
     25 C         142.9748  140.6356  169.2580 C.ar    1  UNL1        0.0031
     26 C         142.6170  141.4917  168.0793 C.ar    1  UNL1        0.0002
     27 C         141.1776  141.7796  167.7708 C.ar    1  UNL1        0.0030
     28 C         140.0959  141.2114  168.6410 C.ar    1  UNL1        0.0369
     29 C         137.9372  139.8851  170.2629 C.3     1  UNL1        0.2525
     30 O         139.3720  139.7872  170.6896 O.3     1  UNL1       -0.4714
@<TRIPOS>BOND
     1    29    30    1
     2    30    23    1
     3    23    24   ar
     4    24    25   ar
     5    25    26   ar
     6    26    27   ar
     7    27     1    1
     8     1     2   ar
     9     2     3   ar
    10     3     4   ar
    11     4     5   ar
    12     5     6   ar
    13     5     7    1
    14     7     8    1
    15     8     9    1
    16     9    10    1
    17    10    11    1
    18    10    12    2
    19     7    13    1
    20    13    14    1
    21    14    15    1
    22    15    16    1
    23    13    17    1
    24    17    18    1
    25    17    19    1
    26    17    20    1
    27    27    28   ar
    28    28    23   ar
    29     6     1   ar
    30    12     7    1
    31    16    13    1
    32    20     4    1
    33    11    21    1
    34    11    22    1
@<TRIPOS>MOLECULE
*****
 30 34 0 0 0
SMALL
GASTEIGER

@<TRIPOS>ATOM
      1 C         140.7279  142.8205  164.7212 C.ar    1  UNL1        0.0000
      2 C         140.0015  143.5019  165.8429 C.ar    1  UNL1        0.0031
      3 C         140.1159  142.9724  167.2416 C.ar    1  UNL1        0.0366
      4 C         140.9567  141.7615  167.5188 C.ar    1  UNL1        0.1360
      5 C         141.6830  141.0801  166.3972 C.ar    1  UNL1        0.0357
      6 C         141.5686  141.6096  164.9983 C.ar    1  UNL1        0.0007
      7 C         142.5238  139.8691  166.6743 C.3     1  UNL1        0.1580
      8 C         143.3968  138.6557  166.7978 C.3     1  UNL1        0.2351
      9 O         143.9172  138.3181  165.4320 O.2     1  UNL1       -0.4478
     10 C         143.3658  139.3229  164.4644 C.2     1  UNL1        0.2770
     11 N         143.6292  139.3622  162.9883 N.pl3   1  UNL1       -0.3133
     12 N         142.5046  140.2815  165.2321 N.2     1  UNL1       -0.2202
     13 C         142.6382  139.3397  168.0730 C.3     1  UNL1        0.1141
     14 C         142.4036  139.6775  167.9957 C.3     1  UNL1        0.1501
     15 O         142.6502  139.3224  168.0770 O.3     1  UNL1       -0.3532
     16 C         142.4036  139.6775  167.9957 C.3     1  UNL1        0.1501
     17 C         141.9119  140.0211  169.1946 C.3     1  UNL1        0.1398
     18 C         141.4180  140.3177  170.5796 C.3     1  UNL1        0.0438
     19 C         142.5811  138.9132  169.9528 C.3     1  UNL1        0.0438
     20 O         141.0711  141.2320  168.9175 O.3     1  UNL1       -0.4826
     21 H         144.2120  138.6854  162.5741 H       1  UNL1        0.1466
     22 H         143.2195  140.0648  162.4337 H       1  UNL1        0.1466
     23 C         139.3655  143.4391  161.0455 C.ar    1  UNL1        0.1387
     24 C         140.3845  144.4089  160.5249 C.ar    1  UNL1        0.0369
     25 C         141.5180  144.8493  161.4031 C.ar    1  UNL1        0.0031
     26 C         141.6325  144.3198  162.8019 C.ar    1  UNL1        0.0002
     27 C         140.6134  143.3500  163.3225 C.ar    1  UNL1        0.0030
     28 C         139.4799  142.9097  162.4442 C.ar    1  UNL1        0.0369
     29 C         138.5032  142.5459  158.7632 C.3     1  UNL1        0.2525
     30 O         138.2320  142.9988  160.1673 O.3     1  UNL1       -0.4714
@<TRIPOS>BOND
     1    29    30    1
     2    30    23    1
     3    23    24   ar
     4    24    25   ar
     5    25    26   ar
     6    26    27   ar
     7    27     1    1
     8     1     2   ar
     9     2     3   ar
    10     3     4   ar
    11     4     5   ar
    12     5     6   ar
    13     5     7    1
    14     7     8    1
    15     8     9    1
    16     9    10    1
    17    10    11    1
    18    10    12    2
    19     7    13    1
    20    13    14    1
    21    14    15    1
    22    15    16    1
    23    13    17    1
    24    17    18    1
    25    17    19    1
    26    17    20    1
    27    27    28   ar
    28    28    23   ar
    29     6     1   ar
    30    12     7    1
    31    16    13    1
    32    20     4    1
    33    11    21    1
    34    11    22    1
@<TRIPOS>MOLECULE
*****
 30 34 0 0 0
SMALL
GASTEIGER

@<TRIPOS>ATOM
      1 C         140.0095  138.9193  164.0682 C.ar    1  UNL1        0.0000
      2 C         138.7707  138.2587  164.5966 C.ar    1  UNL1        0.0031
      3 C         138.3431  138.4923  166.0152 C.ar    1  UNL1        0.0366
      4 C         139.1543  139.3863  166.9055 C.ar    1  UNL1        0.1360
      5 C         140.3930  140.0469  166.3772 C.ar    1  UNL1        0.0357
      6 C         140.8206  139.8133  164.9585 C.ar    1  UNL1        0.0007
      7 C         141.2042  140.9410  167.2675 C.3     1  UNL1        0.1580
      8 C         142.1114  141.8559  168.0355 C.3     1  UNL1        0.2351
      9 O         143.2212  142.2830  167.1210 O.2     1  UNL1       -0.4478
     10 C         142.9998  141.6320  165.7879 C.2     1  UNL1        0.2770
     11 N         143.8718  141.7837  164.5769 N.pl3   1  UNL1       -0.3133
     12 N         141.7532  140.8025  165.8784 N.2     1  UNL1       -0.2202
     13 C         140.7766  141.1745  168.6862 C.3     1  UNL1        0.1141
     14 C         140.5503  140.9251  168.4378 C.3     1  UNL1        0.1501
     15 O         140.7881  141.1873  168.6989 O.3     1  UNL1       -0.3532
     16 C         140.5503  140.9251  168.4378 C.3     1  UNL1        0.1501
     17 C         139.5378  140.5140  169.2145 C.3     1  UNL1        0.1398
     18 C         138.4496  140.1160  170.1670 C.3     1  UNL1        0.0438
     19 C         139.9710  141.2698  170.4357 C.3     1  UNL1        0.0438
     20 O         138.7267  139.6199  168.3242 O.3     1  UNL1       -0.4826
     21 H         144.6736  142.3535  164.6160 H       1  UNL1        0.1466
     22 H         143.6422  141.3134  163.7430 H       1  UNL1        0.1466
     23 C         139.9119  138.7272  160.1054 C.ar    1  UNL1        0.1387
     24 C         141.2922  138.2186  159.8122 C.ar    1  UNL1        0.0369
     25 C         142.2450  137.9436  160.9376 C.ar    1  UNL1        0.0031
     26 C         141.8174  138.1771  162.3563 C.ar    1  UNL1        0.0002
     27 C         140.4371  138.6857  162.6496 C.ar    1  UNL1        0.0030
     28 C         139.4843  138.9607  161.5241 C.ar    1  UNL1        0.0369
     29 C         138.2301  140.3117  158.9176 C.3     1  UNL1        0.2525
     30 O         138.9591  139.0022  158.9801 O.3     1  UNL1       -0.4714
@<TRIPOS>BOND
     1    29    30    1
     2    30    23    1
     3    23    24   ar
     4    24    25   ar
     5    25    26   ar
     6    26    27   ar
     7    27     1    1
     8     1     2   ar
     9     2     3   ar
    10     3     4   ar
    11     4     5   ar
    12     5     6   ar
    13     5     7    1
    14     7     8    1
    15     8     9    1
    16     9    10    1
    17    10    11    1
    18    10    12    2
    19     7    13    1
    20    13    14    1
    21    14    15    1
    22    15    16    1
    23    13    17    1
    24    17    18    1
    25    17    19    1
    26    17    20    1
    27    27    28   ar
    28    28    23   ar
    29     6     1   ar
    30    12     7    1
    31    16    13    1
    32    20     4    1
    33    11    21    1
    34    11    22    1
