@<TRIPOS>MOLECULE
*****
 32 35 0 0 0
SMALL
GASTEIGER

@<TRIPOS>ATOM
      1 C         144.3280  142.9033  162.8858 C.3     1  UNL1        0.1697
      2 O         145.1709  143.1859  161.6776 O.3     1  UNL1       -0.3793
      3 H         146.0900  142.9340  161.8584 H       1  UNL1        0.2106
      4 C         144.9539  142.3175  164.1166 C.3     1  UNL1        0.1021
      5 N         144.4014  141.0561  164.7114 N.3     1  UNL1       -0.2922
      6 H         144.8184  140.9598  165.6372 H       1  UNL1        0.1234
      7 C         144.6000  139.7459  164.0086 C.3     1  UNL1        0.1166
      8 C         143.4640  138.7721  163.9023 C.3     1  UNL1        0.2226
      9 O         142.7838  138.2749  165.1433 O.3     1  UNL1       -0.4709
     10 C         140.9186  139.8096  166.1004 C.ar    1  UNL1        0.1724
     11 C         139.4646  140.1005  166.3265 C.ar    1  UNL1        0.0400
     12 C         138.4218  139.1477  165.8219 C.ar    1  UNL1        0.0033
     13 C         138.8329  137.9040  165.0910 C.ar    1  UNL1        0.0033
     14 C         140.2870  137.6131  164.8649 C.ar    1  UNL1        0.0400
     15 C         141.3299  138.5658  165.3695 C.ar    1  UNL1        0.1723
     16 C         141.5544  141.9683  167.3987 C.3     1  UNL1        0.2526
     17 O         141.9614  140.7623  166.6050 O.3     1  UNL1       -0.4684
     18 C         142.8591  143.2064  162.8631 C.3     1  UNL1        0.2358
     19 O         141.9237  142.4517  163.7605 O.3     1  UNL1       -0.4728
     20 C         140.5066  142.9149  163.9267 C.ar    1  UNL1        0.1398
     21 C         140.2158  144.1905  164.6603 C.ar    1  UNL1        0.0370
     22 C         138.7988  144.6538  164.8265 C.ar    1  UNL1        0.0047
     23 C         137.6728  143.8415  164.2591 C.ar    1  UNL1        0.0193
     24 C         137.9636  142.5659  163.5254 C.ar    1  UNL1        0.0839
     25 N         137.0672  141.5626  162.8623 N.2     1  UNL1       -0.2456
     26 C         137.9300  140.4792  162.2863 C.2     1  UNL1        0.0778
     27 C         137.5986  139.2320  161.5219 C.2     1  UNL1        0.0185
     28 C         138.6969  138.3185  161.0645 C.2     1  UNL1       -0.0027
     29 C         140.1267  138.6522  161.3716 C.2     1  UNL1       -0.0213
     30 C         140.4581  139.8995  162.1361 C.3     1  UNL1        0.0540
     31 C         139.3598  140.8130  162.5934 C.2     1  UNL1        0.0042
     32 C         139.3806  142.1026  163.3592 C.ar    1  UNL1        0.0494
@<TRIPOS>BOND
     1    16    17    1
     2    17    10    1
     3    10    11   ar
     4    11    12   ar
     5    12    13   ar
     6    13    14   ar
     7    14    15   ar
     8    15     9    1
     9     9     8    1
    10     8     7    1
    11     7     5    1
    12     5     4    1
    13     4     1    1
    14     1     2    1
    15     1    18    1
    16    18    19    1
    17    19    20    1
    18    20    21   ar
    19    21    22   ar
    20    22    23   ar
    21    23    24   ar
    22    24    25    2
    23    25    26    1
    24    26    27    2
    25    27    28    1
    26    28    29    2
    27    29    30    1
    28    30    31    1
    29    31    32    2
    30    15    10   ar
    31    32    20   ar
    32    32    24   ar
    33    31    26    1
    34     5     6    1
    35     2     3    1
@<TRIPOS>MOLECULE
*****
 32 35 0 0 0
SMALL
GASTEIGER

@<TRIPOS>ATOM
      1 C         138.2853  138.9262  162.6998 C.3     1  UNL1        0.1697
      2 O         138.7036  137.7660  161.8459 O.3     1  UNL1       -0.3793
      3 H         138.4452  137.9319  160.9258 H       1  UNL1        0.2106
      4 C         137.5810  140.0972  162.0812 C.3     1  UNL1        0.1021
      5 N         137.0374  141.1910  162.9520 N.3     1  UNL1       -0.2922
      6 H         136.1035  141.4079  162.6037 H       1  UNL1        0.1234
      7 C         137.7710  142.4944  163.0649 C.3     1  UNL1        0.1166
      8 C         137.8465  143.2005  164.3861 C.3     1  UNL1        0.2226
      9 O         138.7726  144.3675  164.5609 O.3     1  UNL1       -0.4709
     10 C         141.0576  144.9438  163.4669 C.ar    1  UNL1        0.1724
     11 C         142.5414  144.7439  163.3759 C.ar    1  UNL1        0.0400
     12 C         143.2241  143.7681  164.2879 C.ar    1  UNL1        0.0033
     13 C         142.4230  142.9921  165.2909 C.ar    1  UNL1        0.0033
     14 C         140.9391  143.1919  165.3818 C.ar    1  UNL1        0.0400
     15 C         140.2564  144.1677  164.4699 C.ar    1  UNL1        0.1723
     16 C         140.2351  145.6094  161.0940 C.3     1  UNL1        0.2526
     17 O         140.3750  145.9196  162.5550 O.3     1  UNL1       -0.4684
     18 C         138.5713  138.9153  164.1722 C.3     1  UNL1        0.2358
     19 O         139.5089  139.9271  164.7615 O.3     1  UNL1       -0.4728
     20 C         140.9453  139.5677  165.0020 C.ar    1  UNL1        0.1398
     21 C         141.8426  139.2482  163.8432 C.ar    1  UNL1        0.0370
     22 C         143.2789  138.8888  164.0836 C.ar    1  UNL1        0.0047
     23 C         143.8180  138.8491  165.4828 C.ar    1  UNL1        0.0193
     24 C         142.9207  139.1687  166.6416 C.ar    1  UNL1        0.0839
     25 N         143.1678  139.2113  168.1205 N.2     1  UNL1       -0.2456
     26 C         141.8842  139.5969  168.7941 C.2     1  UNL1        0.0778
     27 C         141.5284  139.7951  170.2377 C.2     1  UNL1        0.0185
     28 C         140.1322  140.1891  170.6187 C.2     1  UNL1       -0.0027
     29 C         139.0917  140.3848  169.5561 C.2     1  UNL1       -0.0213
     30 C         139.4475  140.1866  168.1125 C.3     1  UNL1        0.0540
     31 C         140.8438  139.7927  167.7315 C.2     1  UNL1        0.0042
     32 C         141.4843  139.5280  166.4012 C.ar    1  UNL1        0.0494
@<TRIPOS>BOND
     1    16    17    1
     2    17    10    1
     3    10    11   ar
     4    11    12   ar
     5    12    13   ar
     6    13    14   ar
     7    14    15   ar
     8    15     9    1
     9     9     8    1
    10     8     7    1
    11     7     5    1
    12     5     4    1
    13     4     1    1
    14     1     2    1
    15     1    18    1
    16    18    19    1
    17    19    20    1
    18    20    21   ar
    19    21    22   ar
    20    22    23   ar
    21    23    24   ar
    22    24    25    2
    23    25    26    1
    24    26    27    2
    25    27    28    1
    26    28    29    2
    27    29    30    1
    28    30    31    1
    29    31    32    2
    30    15    10   ar
    31    32    20   ar
    32    32    24   ar
    33    31    26    1
    34     5     6    1
    35     2     3    1
@<TRIPOS>MOLECULE
*****
 32 35 0 0 0
SMALL
GASTEIGER

@<TRIPOS>ATOM
      1 C         142.8460  144.5857  163.4028 C.3     1  UNL1        0.1697
      2 O         143.9909  145.1960  162.6501 O.3     1  UNL1       -0.3793
      3 H         143.6473  145.7408  161.9248 H       1  UNL1        0.2106
      4 C         141.4348  144.8675  162.9795 C.3     1  UNL1        0.1021
      5 N         140.4090  145.2585  164.0017 N.3     1  UNL1       -0.2922
      6 H         140.8126  145.0561  164.9163 H       1  UNL1        0.1234
      7 C         139.0489  144.6264  163.9791 C.3     1  UNL1        0.1166
      8 C         138.6844  143.5943  165.0047 C.3     1  UNL1        0.2226
      9 O         137.7008  142.5141  164.6649 O.3     1  UNL1       -0.4709
     10 C         137.9856  140.4084  163.1698 C.ar    1  UNL1        0.1724
     11 C         138.4554  138.9949  162.9927 C.ar    1  UNL1        0.0400
     12 C         139.1101  138.2736  164.1334 C.ar    1  UNL1        0.0033
     13 C         139.2950  138.9658  165.4513 C.ar    1  UNL1        0.0033
     14 C         138.8252  140.3793  165.6284 C.ar    1  UNL1        0.0400
     15 C         138.1705  141.1007  164.4877 C.ar    1  UNL1        0.1723
     16 C         138.1070  142.1385  161.2354 C.3     1  UNL1        0.2526
     17 O         137.3310  141.1296  162.0292 O.3     1  UNL1       -0.4684
     18 C         143.1121  143.6935  164.5789 C.3     1  UNL1        0.2358
     19 O         142.0806  142.6935  165.0102 O.3     1  UNL1       -0.4728
     20 C         142.5039  141.3284  165.4657 C.ar    1  UNL1        0.1398
     21 C         143.2100  140.4064  164.5163 C.ar    1  UNL1        0.0370
     22 C         143.6333  139.0413  164.9717 C.ar    1  UNL1        0.0047
     23 C         143.3505  138.5983  166.3766 C.ar    1  UNL1        0.0193
     24 C         142.6444  139.5202  167.3260 C.ar    1  UNL1        0.0839
     25 N         142.2322  139.3614  168.7595 N.2     1  UNL1       -0.2456
     26 C         141.5541  140.6283  169.1900 C.2     1  UNL1        0.0778
     27 C         140.9421  141.0459  170.4941 C.2     1  UNL1        0.0185
     28 C         140.3232  142.4054  170.6309 C.2     1  UNL1       -0.0027
     29 C         140.3163  143.3472  169.4634 C.2     1  UNL1       -0.0213
     30 C         140.9284  142.9296  168.1593 C.3     1  UNL1        0.0540
     31 C         141.5473  141.5701  168.0225 C.2     1  UNL1        0.0042
     32 C         142.2211  140.8853  166.8706 C.ar    1  UNL1        0.0494
@<TRIPOS>BOND
     1    16    17    1
     2    17    10    1
     3    10    11   ar
     4    11    12   ar
     5    12    13   ar
     6    13    14   ar
     7    14    15   ar
     8    15     9    1
     9     9     8    1
    10     8     7    1
    11     7     5    1
    12     5     4    1
    13     4     1    1
    14     1     2    1
    15     1    18    1
    16    18    19    1
    17    19    20    1
    18    20    21   ar
    19    21    22   ar
    20    22    23   ar
    21    23    24   ar
    22    24    25    2
    23    25    26    1
    24    26    27    2
    25    27    28    1
    26    28    29    2
    27    29    30    1
    28    30    31    1
    29    31    32    2
    30    15    10   ar
    31    32    20   ar
    32    32    24   ar
    33    31    26    1
    34     5     6    1
    35     2     3    1
@<TRIPOS>MOLECULE
*****
 32 35 0 0 0
SMALL
GASTEIGER

@<TRIPOS>ATOM
      1 C         137.8041  142.1332  162.7226 C.3     1  UNL1        0.1697
      2 O         136.6027  141.3877  163.2235 O.3     1  UNL1       -0.3793
      3 H         135.9539  142.0181  163.5739 H       1  UNL1        0.2106
      4 C         137.8512  143.6295  162.8165 C.3     1  UNL1        0.1021
      5 N         138.8083  144.4050  161.9605 N.3     1  UNL1       -0.2922
      6 H         139.4297  143.7247  161.5229 H       1  UNL1        0.1234
      7 C         139.6828  145.4566  162.5766 C.3     1  UNL1        0.1166
      8 C         140.6634  145.0829  163.6484 C.3     1  UNL1        0.2226
      9 O         142.1107  145.4485  163.5012 O.3     1  UNL1       -0.4709
     10 C         143.4838  143.7620  162.0797 C.ar    1  UNL1        0.1724
     11 C         144.5238  142.6851  161.9879 C.ar    1  UNL1        0.0400
     12 C         145.2308  142.2176  163.2255 C.ar    1  UNL1        0.0033
     13 C         144.8977  142.8271  164.5550 C.ar    1  UNL1        0.0033
     14 C         143.8577  143.9041  164.6468 C.ar    1  UNL1        0.0400
     15 C         143.1507  144.3716  163.4093 C.ar    1  UNL1        0.1723
     16 C         142.5792  143.2887  159.6906 C.3     1  UNL1        0.2526
     17 O         142.7769  144.2294  160.8422 O.3     1  UNL1       -0.4684
     18 C         138.9584  141.3824  162.1279 C.3     1  UNL1        0.2358
     19 O         140.3648  141.8123  162.4234 O.3     1  UNL1       -0.4728
     20 C         141.4287  140.7828  162.6651 C.ar    1  UNL1        0.1398
     21 C         141.9673  139.9777  161.5197 C.ar    1  UNL1        0.0370
     22 C         143.0311  138.9482  161.7614 C.ar    1  UNL1        0.0047
     23 C         143.5563  138.7238  163.1484 C.ar    1  UNL1        0.0193
     24 C         143.0177  139.5289  164.2937 C.ar    1  UNL1        0.0839
     25 N         143.3391  139.5296  165.7589 N.2     1  UNL1       -0.2456
     26 C         142.4739  140.5595  166.4227 C.2     1  UNL1        0.0778
     27 C         142.3550  141.0005  167.8515 C.2     1  UNL1        0.0185
     28 C         141.3800  142.0773  168.2253 C.2     1  UNL1       -0.0027
     29 C         140.5239  142.7131  167.1705 C.2     1  UNL1       -0.0213
     30 C         140.6428  142.2722  165.7417 C.3     1  UNL1        0.0540
     31 C         141.6178  141.1953  165.3679 C.2     1  UNL1        0.0042
     32 C         141.9539  140.5584  164.0521 C.ar    1  UNL1        0.0494
@<TRIPOS>BOND
     1    16    17    1
     2    17    10    1
     3    10    11   ar
     4    11    12   ar
     5    12    13   ar
     6    13    14   ar
     7    14    15   ar
     8    15     9    1
     9     9     8    1
    10     8     7    1
    11     7     5    1
    12     5     4    1
    13     4     1    1
    14     1     2    1
    15     1    18    1
    16    18    19    1
    17    19    20    1
    18    20    21   ar
    19    21    22   ar
    20    22    23   ar
    21    23    24   ar
    22    24    25    2
    23    25    26    1
    24    26    27    2
    25    27    28    1
    26    28    29    2
    27    29    30    1
    28    30    31    1
    29    31    32    2
    30    15    10   ar
    31    32    20   ar
    32    32    24   ar
    33    31    26    1
    34     5     6    1
    35     2     3    1
@<TRIPOS>MOLECULE
*****
 32 35 0 0 0
SMALL
GASTEIGER

@<TRIPOS>ATOM
      1 C         137.7404  141.5994  162.5177 C.3     1  UNL1        0.1697
      2 O         137.3470  142.9981  162.1449 O.3     1  UNL1       -0.3793
      3 H         137.2252  143.0545  161.1842 H       1  UNL1        0.2106
      4 C         137.8845  140.5520  161.4538 C.3     1  UNL1        0.1021
      5 N         137.3130  139.1817  161.6679 N.3     1  UNL1       -0.2922
      6 H         136.6784  139.2484  162.4637 H       1  UNL1        0.1234
      7 C         138.2256  138.0222  161.9378 C.3     1  UNL1        0.1166
      8 C         139.7067  138.1757  161.7573 C.3     1  UNL1        0.2226
      9 O         140.6494  137.2628  162.4839 O.3     1  UNL1       -0.4709
     10 C         142.8998  138.5507  162.6488 C.ar    1  UNL1        0.1724
     11 C         144.0102  139.1248  163.4779 C.ar    1  UNL1        0.0400
     12 C         143.9806  138.9852  164.9711 C.ar    1  UNL1        0.0033
     13 C         142.8407  138.2715  165.6352 C.ar    1  UNL1        0.0033
     14 C         141.7303  137.6974  164.8061 C.ar    1  UNL1        0.0400
     15 C         141.7598  137.8369  163.3129 C.ar    1  UNL1        0.1723
     16 C         144.0505  139.4355  160.4940 C.3     1  UNL1        0.2526
     17 O         142.9294  138.6903  161.1557 O.3     1  UNL1       -0.4684
     18 C         137.9896  141.2482  163.9546 C.3     1  UNL1        0.2358
     19 O         139.2149  140.4710  164.3349 O.3     1  UNL1       -0.4728
     20 C         139.7398  140.5380  165.7386 C.ar    1  UNL1        0.1398
     21 C         138.9749  139.8943  166.8569 C.ar    1  UNL1        0.0370
     22 C         139.4997  139.9613  168.2604 C.ar    1  UNL1        0.0047
     23 C         140.7895  140.6720  168.5457 C.ar    1  UNL1        0.0193
     24 C         141.5544  141.3157  167.4274 C.ar    1  UNL1        0.0839
     25 N         142.8449  142.0800  167.4037 N.2     1  UNL1       -0.2456
     26 C         143.1175  142.4854  165.9855 C.2     1  UNL1        0.0778
     27 C         144.2424  143.2561  165.3605 C.2     1  UNL1        0.0185
     28 C         144.2455  143.5129  163.8827 C.2     1  UNL1       -0.0027
     29 C         143.1235  142.9991  163.0299 C.2     1  UNL1       -0.0213
     30 C         141.9986  142.2285  163.6549 C.3     1  UNL1        0.0540
     31 C         141.9956  141.9716  165.1327 C.2     1  UNL1        0.0042
     32 C         141.0296  141.2487  166.0238 C.ar    1  UNL1        0.0494
@<TRIPOS>BOND
     1    16    17    1
     2    17    10    1
     3    10    11   ar
     4    11    12   ar
     5    12    13   ar
     6    13    14   ar
     7    14    15   ar
     8    15     9    1
     9     9     8    1
    10     8     7    1
    11     7     5    1
    12     5     4    1
    13     4     1    1
    14     1     2    1
    15     1    18    1
    16    18    19    1
    17    19    20    1
    18    20    21   ar
    19    21    22   ar
    20    22    23   ar
    21    23    24   ar
    22    24    25    2
    23    25    26    1
    24    26    27    2
    25    27    28    1
    26    28    29    2
    27    29    30    1
    28    30    31    1
    29    31    32    2
    30    15    10   ar
    31    32    20   ar
    32    32    24   ar
    33    31    26    1
    34     5     6    1
    35     2     3    1
@<TRIPOS>MOLECULE
*****
 32 35 0 0 0
SMALL
GASTEIGER

@<TRIPOS>ATOM
      1 C         140.6223  144.3734  163.9655 C.3     1  UNL1        0.1697
      2 O         141.7193  144.9467  163.1181 O.3     1  UNL1       -0.3793
      3 H         141.3401  145.5624  162.4715 H       1  UNL1        0.2106
      4 C         139.1994  144.7858  163.7301 C.3     1  UNL1        0.1021
      5 N         138.4658  144.2912  162.5188 N.3     1  UNL1       -0.2922
      6 H         137.7903  145.0132  162.2685 H       1  UNL1        0.1234
      7 C         137.7132  142.9949  162.5751 C.3     1  UNL1        0.1166
      8 C         138.4091  141.7085  162.2422 C.3     1  UNL1        0.2226
      9 O         137.9088  140.4153  162.8143 O.3     1  UNL1       -0.4709
     10 C         138.9061  138.8119  164.5989 C.ar    1  UNL1        0.1724
     11 C         139.8778  137.7341  164.9786 C.ar    1  UNL1        0.0400
     12 C         140.8237  137.1819  163.9538 C.ar    1  UNL1        0.0033
     13 C         140.7980  137.7074  162.5491 C.ar    1  UNL1        0.0033
     14 C         139.8263  138.7852  162.1693 C.ar    1  UNL1        0.0400
     15 C         138.8804  139.3375  163.1941 C.ar    1  UNL1        0.1723
     16 C         137.7901  138.6662  166.9405 C.3     1  UNL1        0.2526
     17 O         137.9603  139.3641  165.6237 O.3     1  UNL1       -0.4684
     18 C         140.9482  143.3878  165.0483 C.3     1  UNL1        0.2358
     19 O         140.6793  141.9271  164.8384 O.3     1  UNL1       -0.4728
     20 C         141.7929  140.9318  164.9786 C.ar    1  UNL1        0.1398
     21 C         142.6485  140.5919  163.7944 C.ar    1  UNL1        0.0370
     22 C         143.7620  139.5967  163.9346 C.ar    1  UNL1        0.0047
     23 C         144.0199  138.9414  165.2590 C.ar    1  UNL1        0.0193
     24 C         143.1642  139.2813  166.4432 C.ar    1  UNL1        0.0839
     25 N         143.1801  138.8007  167.8640 N.2     1  UNL1       -0.2456
     26 C         142.0764  139.4988  168.6019 C.2     1  UNL1        0.0778
     27 C         141.6168  139.4217  170.0277 C.2     1  UNL1        0.0185
     28 C         140.4592  140.2568  170.4886 C.2     1  UNL1       -0.0027
     29 C         139.7612  141.1689  169.5239 C.2     1  UNL1       -0.0213
     30 C         140.2208  141.2460  168.0981 C.3     1  UNL1        0.0540
     31 C         141.3784  140.4109  167.6372 C.2     1  UNL1        0.0042
     32 C         142.0507  140.2765  166.3030 C.ar    1  UNL1        0.0494
@<TRIPOS>BOND
     1    16    17    1
     2    17    10    1
     3    10    11   ar
     4    11    12   ar
     5    12    13   ar
     6    13    14   ar
     7    14    15   ar
     8    15     9    1
     9     9     8    1
    10     8     7    1
    11     7     5    1
    12     5     4    1
    13     4     1    1
    14     1     2    1
    15     1    18    1
    16    18    19    1
    17    19    20    1
    18    20    21   ar
    19    21    22   ar
    20    22    23   ar
    21    23    24   ar
    22    24    25    2
    23    25    26    1
    24    26    27    2
    25    27    28    1
    26    28    29    2
    27    29    30    1
    28    30    31    1
    29    31    32    2
    30    15    10   ar
    31    32    20   ar
    32    32    24   ar
    33    31    26    1
    34     5     6    1
    35     2     3    1
@<TRIPOS>MOLECULE
*****
 32 35 0 0 0
SMALL
GASTEIGER

@<TRIPOS>ATOM
      1 C         138.1456  141.5865  162.7461 C.3     1  UNL1        0.1697
      2 O         136.7080  141.3235  163.0840 O.3     1  UNL1       -0.3793
      3 H         136.2211  141.1017  162.2749 H       1  UNL1        0.2106
      4 C         138.6129  141.4836  161.3245 C.3     1  UNL1        0.1021
      5 N         140.0787  141.3807  161.0224 N.3     1  UNL1       -0.2922
      6 H         140.2741  142.0523  160.2799 H       1  UNL1        0.1234
      7 C         140.6644  140.0705  160.5862 C.3     1  UNL1        0.1166
      8 C         142.1527  139.8852  160.5623 C.3     1  UNL1        0.2226
      9 O         142.7682  138.6755  161.2008 O.3     1  UNL1       -0.4709
     10 C         141.7337  137.8801  163.4475 C.ar    1  UNL1        0.1724
     11 C         141.7999  137.7727  164.9421 C.ar    1  UNL1        0.0400
     12 C         142.9666  138.3533  165.6849 C.ar    1  UNL1        0.0033
     13 C         144.0672  139.0413  164.9329 C.ar    1  UNL1        0.0033
     14 C         144.0010  139.1487  163.4383 C.ar    1  UNL1        0.0400
     15 C         142.8343  138.5681  162.6954 C.ar    1  UNL1        0.1723
     16 C         139.1717  137.7353  163.0411 C.3     1  UNL1        0.2526
     17 O         140.5671  137.2995  162.7048 O.3     1  UNL1       -0.4684
     18 C         139.1159  141.9525  163.8299 C.3     1  UNL1        0.2358
     19 O         140.3789  141.1622  164.0040 O.3     1  UNL1       -0.4728
     20 C         141.6328  141.8441  164.4652 C.ar    1  UNL1        0.1398
     21 C         142.5461  142.4904  163.4661 C.ar    1  UNL1        0.0370
     22 C         143.8000  143.1723  163.9273 C.ar    1  UNL1        0.0047
     23 C         144.1406  143.2080  165.3876 C.ar    1  UNL1        0.0193
     24 C         143.2273  142.5618  166.3868 C.ar    1  UNL1        0.0839
     25 N         143.3003  142.4373  167.8798 N.2     1  UNL1       -0.2456
     26 C         142.0915  141.6785  168.3414 C.2     1  UNL1        0.0778
     27 C         141.6316  141.2567  169.7054 C.2     1  UNL1        0.0185
     28 C         140.3517  140.4904  169.8616 C.2     1  UNL1       -0.0027
     29 C         139.5316  140.1458  168.6538 C.2     1  UNL1       -0.0213
     30 C         139.9915  140.5676  167.2898 C.3     1  UNL1        0.0540
     31 C         141.2714  141.3339  167.1336 C.2     1  UNL1        0.0042
     32 C         141.9734  141.8799  165.9256 C.ar    1  UNL1        0.0494
@<TRIPOS>BOND
     1    16    17    1
     2    17    10    1
     3    10    11   ar
     4    11    12   ar
     5    12    13   ar
     6    13    14   ar
     7    14    15   ar
     8    15     9    1
     9     9     8    1
    10     8     7    1
    11     7     5    1
    12     5     4    1
    13     4     1    1
    14     1     2    1
    15     1    18    1
    16    18    19    1
    17    19    20    1
    18    20    21   ar
    19    21    22   ar
    20    22    23   ar
    21    23    24   ar
    22    24    25    2
    23    25    26    1
    24    26    27    2
    25    27    28    1
    26    28    29    2
    27    29    30    1
    28    30    31    1
    29    31    32    2
    30    15    10   ar
    31    32    20   ar
    32    32    24   ar
    33    31    26    1
    34     5     6    1
    35     2     3    1
@<TRIPOS>MOLECULE
*****
 32 35 0 0 0
SMALL
GASTEIGER

@<TRIPOS>ATOM
      1 C         142.3833  144.8119  163.2439 C.3     1  UNL1        0.1697
      2 O         142.4081  145.1047  161.7729 O.3     1  UNL1       -0.3793
      3 H         143.3057  145.3614  161.5095 H       1  UNL1        0.2106
      4 C         143.6382  144.9404  164.0555 C.3     1  UNL1        0.1021
      5 N         144.2045  143.7409  164.7560 N.3     1  UNL1       -0.2922
      6 H         145.1473  143.9917  165.0537 H       1  UNL1        0.1234
      7 C         144.3128  142.4315  164.0325 C.3     1  UNL1        0.1166
      8 C         145.6093  141.6772  164.0368 C.3     1  UNL1        0.2226
      9 O         145.6047  140.1777  163.9994 O.3     1  UNL1       -0.4709
     10 C         143.5872  138.9475  162.9194 C.ar    1  UNL1        0.1724
     11 C         142.2958  138.1977  163.0610 C.ar    1  UNL1        0.0400
     12 C         141.7306  137.9281  164.4241 C.ar    1  UNL1        0.0033
     13 C         142.4567  138.4084  165.6455 C.ar    1  UNL1        0.0033
     14 C         143.7481  139.1582  165.5039 C.ar    1  UNL1        0.0400
     15 C         144.3134  139.4279  164.1409 C.ar    1  UNL1        0.1723
     16 C         143.8453  140.5092  160.8592 C.3     1  UNL1        0.2526
     17 O         144.1523  139.2171  161.5565 O.3     1  UNL1       -0.4684
     18 C         141.1036  144.3905  163.9033 C.3     1  UNL1        0.2358
     19 O         141.1413  143.5567  165.1496 O.3     1  UNL1       -0.4728
     20 C         140.2016  142.3979  165.3055 C.ar    1  UNL1        0.1398
     21 C         139.1063  142.1806  164.3039 C.ar    1  UNL1        0.0370
     22 C         138.1665  141.0219  164.4597 C.ar    1  UNL1        0.0047
     23 C         138.3221  140.0805  165.6170 C.ar    1  UNL1        0.0193
     24 C         139.4174  140.2978  166.6186 C.ar    1  UNL1        0.0839
     25 N         139.8139  139.5422  167.8522 N.2     1  UNL1       -0.2456
     26 C         140.9986  140.2339  168.4589 C.2     1  UNL1        0.0778
     27 C         141.8150  139.9392  169.6822 C.2     1  UNL1        0.0185
     28 C         142.9672  140.8277  170.0468 C.2     1  UNL1       -0.0027
     29 C         143.3029  142.0109  169.1881 C.2     1  UNL1       -0.0213
     30 C         142.4865  142.3055  167.9648 C.3     1  UNL1        0.0540
     31 C         141.3343  141.4170  167.6001 C.2     1  UNL1        0.0042
     32 C         140.3571  141.4565  166.4628 C.ar    1  UNL1        0.0494
@<TRIPOS>BOND
     1    16    17    1
     2    17    10    1
     3    10    11   ar
     4    11    12   ar
     5    12    13   ar
     6    13    14   ar
     7    14    15   ar
     8    15     9    1
     9     9     8    1
    10     8     7    1
    11     7     5    1
    12     5     4    1
    13     4     1    1
    14     1     2    1
    15     1    18    1
    16    18    19    1
    17    19    20    1
    18    20    21   ar
    19    21    22   ar
    20    22    23   ar
    21    23    24   ar
    22    24    25    2
    23    25    26    1
    24    26    27    2
    25    27    28    1
    26    28    29    2
    27    29    30    1
    28    30    31    1
    29    31    32    2
    30    15    10   ar
    31    32    20   ar
    32    32    24   ar
    33    31    26    1
    34     5     6    1
    35     2     3    1
@<TRIPOS>MOLECULE
*****
 32 35 0 0 0
SMALL
GASTEIGER

@<TRIPOS>ATOM
      1 C         138.3614  142.9336  162.3696 C.3     1  UNL1        0.1697
      2 O         137.4625  144.1293  162.4803 O.3     1  UNL1       -0.3793
      3 H         136.5458  143.8349  162.5980 H       1  UNL1        0.2106
      4 C         137.7839  141.5514  162.4477 C.3     1  UNL1        0.1021
      5 N         138.6431  140.3611  162.1394 N.3     1  UNL1       -0.2922
      6 H         139.0583  140.5271  161.2226 H       1  UNL1        0.1234
      7 C         138.0375  138.9894  162.0984 C.3     1  UNL1        0.1166
      8 C         138.7396  137.8396  162.7580 C.3     1  UNL1        0.2226
      9 O         140.1438  137.4915  162.3620 O.3     1  UNL1       -0.4709
     10 C         142.3683  138.8131  162.5974 C.ar    1  UNL1        0.1724
     11 C         143.5213  139.2765  163.4376 C.ar    1  UNL1        0.0400
     12 C         143.6028  138.8819  164.8825 C.ar    1  UNL1        0.0033
     13 C         142.5313  138.0238  165.4872 C.ar    1  UNL1        0.0033
     14 C         141.3783  137.5604  164.6470 C.ar    1  UNL1        0.0400
     15 C         141.2968  137.9549  163.2021 C.ar    1  UNL1        0.1723
     16 C         143.4871  139.7872  160.4645 C.3     1  UNL1        0.2526
     17 O         142.2869  139.2077  161.1526 O.3     1  UNL1       -0.4684
     18 C         139.8377  143.1200  162.1809 C.3     1  UNL1        0.2358
     19 O         140.7965  142.0934  162.7071 O.3     1  UNL1       -0.4728
     20 C         141.9420  142.5145  163.5794 C.ar    1  UNL1        0.1398
     21 C         143.0641  143.3266  163.0037 C.ar    1  UNL1        0.0370
     22 C         144.2095  143.7476  163.8759 C.ar    1  UNL1        0.0047
     23 C         144.2328  143.3565  165.3238 C.ar    1  UNL1        0.0193
     24 C         143.1107  142.5444  165.8995 C.ar    1  UNL1        0.0839
     25 N         142.8613  142.0139  167.2802 N.2     1  UNL1       -0.2456
     26 C         141.5617  141.2649  167.2613 C.2     1  UNL1        0.0778
     27 C         140.8111  140.5301  168.3320 C.2     1  UNL1        0.0185
     28 C         139.5068  139.8629  168.0104 C.2     1  UNL1       -0.0027
     29 C         138.9530  139.9306  166.6180 C.2     1  UNL1       -0.0213
     30 C         139.7036  140.6655  165.5473 C.3     1  UNL1        0.0540
     31 C         141.0080  141.3326  165.8689 C.2     1  UNL1        0.0042
     32 C         141.9653  142.1234  165.0273 C.ar    1  UNL1        0.0494
@<TRIPOS>BOND
     1    16    17    1
     2    17    10    1
     3    10    11   ar
     4    11    12   ar
     5    12    13   ar
     6    13    14   ar
     7    14    15   ar
     8    15     9    1
     9     9     8    1
    10     8     7    1
    11     7     5    1
    12     5     4    1
    13     4     1    1
    14     1     2    1
    15     1    18    1
    16    18    19    1
    17    19    20    1
    18    20    21   ar
    19    21    22   ar
    20    22    23   ar
    21    23    24   ar
    22    24    25    2
    23    25    26    1
    24    26    27    2
    25    27    28    1
    26    28    29    2
    27    29    30    1
    28    30    31    1
    29    31    32    2
    30    15    10   ar
    31    32    20   ar
    32    32    24   ar
    33    31    26    1
    34     5     6    1
    35     2     3    1
