@<TRIPOS>MOLECULE
*****
 24 26 0 0 0
SMALL
GASTEIGER

@<TRIPOS>ATOM
      1 C         141.4527  140.9352  167.2651 C.3     1  UNL1        0.0847
      2 N         141.1954  141.3358  168.6876 N.3     1  UNL1       -0.2676
      3 C         141.7326  140.4997  169.8111 C.3     1  UNL1        0.0896
      4 C         141.4753  140.9002  171.2335 C.3     1  UNL1        0.0862
      5 N         140.6808  142.1369  171.5324 N.3     1  UNL1       -0.2951
      6 C         140.1436  142.9730  170.4089 C.3     1  UNL1        0.0862
      7 C         140.4009  142.5725  168.9865 C.3     1  UNL1        0.0896
      8 H         141.2805  142.7443  172.0909 H       1  UNL1        0.1233
      9 C         140.5842  139.9042  166.6074 C.ar    1  UNL1       -0.0075
     10 C         141.1502  139.0191  165.5369 C.ar    1  UNL1       -0.0030
     11 C         140.2816  137.9881  164.8792 C.ar    1  UNL1       -0.0003
     12 C         138.8470  137.8422  165.2921 C.ar    1  UNL1       -0.0000
     13 C         138.2809  138.7273  166.3627 C.ar    1  UNL1       -0.0003
     14 C         139.1495  139.7583  167.0203 C.ar    1  UNL1       -0.0030
     15 C         142.5786  141.5657  166.5004 C.3     1  UNL1        0.0499
     16 C         143.4346  143.3571  164.8246 C.ar    1  UNL1        0.1346
     17 C         143.1615  144.5030  163.8961 C.ar    1  UNL1        0.0366
     18 C         141.7591  145.0036  163.7148 C.ar    1  UNL1        0.0031
     19 C         140.6300  144.3582  164.4621 C.ar    1  UNL1       -0.0001
     20 C         140.9031  143.2122  165.3906 C.ar    1  UNL1       -0.0012
     21 C         142.3054  142.7117  165.5718 C.ar    1  UNL1        0.0135
     22 O         144.8370  142.8565  165.0059 O.3     1  UNL1       -0.4758
     23 C         145.1724  140.4689  164.0381 C.3     1  UNL1        0.0512
     24 C         145.4452  141.9428  163.9835 C.3     1  UNL1        0.2055
@<TRIPOS>BOND
     1    23    24    1
     2    24    22    1
     3    22    16    1
     4    16    17   ar
     5    17    18   ar
     6    18    19   ar
     7    19    20   ar
     8    20    21   ar
     9    21    15    1
    10     1    15    1
    11     1     9    1
    12     9    10   ar
    13    10    11   ar
    14    11    12   ar
    15    12    13   ar
    16    13    14   ar
    17     1     2    1
    18     2     3    1
    19     3     4    1
    20     4     5    1
    21     5     6    1
    22     6     7    1
    23    21    16   ar
    24    14     9   ar
    25     7     2    1
    26     5     8    1
@<TRIPOS>MOLECULE
*****
 24 26 0 0 0
SMALL
GASTEIGER

@<TRIPOS>ATOM
      1 C         140.6293  141.0941  167.4591 C.3     1  UNL1        0.0847
      2 N         141.1553  140.9319  168.8545 N.3     1  UNL1       -0.2676
      3 C         140.4758  141.6259  169.9976 C.3     1  UNL1        0.0896
      4 C         141.0018  141.4638  171.3929 C.3     1  UNL1        0.0862
      5 N         142.2073  140.6076  171.6452 N.3     1  UNL1       -0.2951
      6 C         142.8869  139.9137  170.5021 C.3     1  UNL1        0.0862
      7 C         142.3609  140.0758  169.1068 C.3     1  UNL1        0.0896
      8 H         141.9207  139.8817  172.3019 H       1  UNL1        0.1233
      9 C         140.0412  139.9178  166.7378 C.ar    1  UNL1       -0.0075
     10 C         138.6614  139.4404  167.0817 C.ar    1  UNL1       -0.0030
     11 C         138.0733  138.2639  166.3603 C.ar    1  UNL1       -0.0003
     12 C         138.8651  137.5650  165.2952 C.ar    1  UNL1       -0.0000
     13 C         140.2449  138.0423  164.9514 C.ar    1  UNL1       -0.0003
     14 C         140.8330  139.2187  165.6727 C.ar    1  UNL1       -0.0030
     15 C         140.6913  142.4327  166.7851 C.3     1  UNL1        0.0499
     16 C         141.4431  143.2345  164.4309 C.ar    1  UNL1        0.1346
     17 C         142.5359  143.5286  163.4465 C.ar    1  UNL1        0.0366
     18 C         143.9698  143.3149  163.8316 C.ar    1  UNL1        0.0031
     19 C         144.3108  142.8071  165.2012 C.ar    1  UNL1       -0.0001
     20 C         143.2180  142.5131  166.1857 C.ar    1  UNL1       -0.0012
     21 C         141.7842  142.7268  165.8006 C.ar    1  UNL1        0.0135
     22 O         140.0092  143.4482  164.0458 O.3     1  UNL1       -0.4758
     23 C         138.4543  144.9799  165.4552 C.3     1  UNL1        0.0512
     24 C         139.3612  144.7811  164.2771 C.3     1  UNL1        0.2055
@<TRIPOS>BOND
     1    23    24    1
     2    24    22    1
     3    22    16    1
     4    16    17   ar
     5    17    18   ar
     6    18    19   ar
     7    19    20   ar
     8    20    21   ar
     9    21    15    1
    10     1    15    1
    11     1     9    1
    12     9    10   ar
    13    10    11   ar
    14    11    12   ar
    15    12    13   ar
    16    13    14   ar
    17     1     2    1
    18     2     3    1
    19     3     4    1
    20     4     5    1
    21     5     6    1
    22     6     7    1
    23    21    16   ar
    24    14     9   ar
    25     7     2    1
    26     5     8    1
@<TRIPOS>MOLECULE
*****
 24 26 0 0 0
SMALL
GASTEIGER

@<TRIPOS>ATOM
      1 C         141.3006  141.0092  167.1831 C.3     1  UNL1        0.0847
      2 N         141.5707  140.9581  168.6577 N.3     1  UNL1       -0.2676
      3 C         140.8287  141.8712  169.5882 C.3     1  UNL1        0.0896
      4 C         141.0987  141.8201  171.0628 C.3     1  UNL1        0.0862
      5 N         142.1107  140.8559  171.6069 N.3     1  UNL1       -0.2951
      6 C         142.8527  139.9428  170.6765 C.3     1  UNL1        0.0862
      7 C         142.5827  139.9939  169.2019 C.3     1  UNL1        0.0896
      8 H         141.6209  140.2609  172.2750 H       1  UNL1        0.1233
      9 C         140.4745  139.9385  166.5344 C.ar    1  UNL1       -0.0075
     10 C         139.0388  139.7564  166.9290 C.ar    1  UNL1       -0.0030
     11 C         138.2127  138.6856  166.2802 C.ar    1  UNL1       -0.0003
     12 C         138.8222  137.7969  165.2368 C.ar    1  UNL1       -0.0000
     13 C         140.2578  137.9789  164.8422 C.ar    1  UNL1       -0.0003
     14 C         141.0840  139.0497  165.4909 C.ar    1  UNL1       -0.0030
     15 C         141.8568  142.1311  166.3572 C.3     1  UNL1        0.0499
     16 C         141.2503  143.3639  164.1521 C.ar    1  UNL1        0.1346
     17 C         140.3258  144.2502  163.3713 C.ar    1  UNL1        0.0366
     18 C         139.0830  144.7900  164.0148 C.ar    1  UNL1        0.0031
     19 C         138.7649  144.4436  165.4392 C.ar    1  UNL1       -0.0001
     20 C         139.6894  143.5573  166.2200 C.ar    1  UNL1       -0.0012
     21 C         140.9321  143.0175  165.5764 C.ar    1  UNL1        0.0135
     22 O         142.4931  142.8240  163.5086 O.3     1  UNL1       -0.4758
     23 C         143.8486  145.0010  163.9243 C.3     1  UNL1        0.0512
     24 C         143.6044  143.7556  163.1249 C.3     1  UNL1        0.2055
@<TRIPOS>BOND
     1    23    24    1
     2    24    22    1
     3    22    16    1
     4    16    17   ar
     5    17    18   ar
     6    18    19   ar
     7    19    20   ar
     8    20    21   ar
     9    21    15    1
    10     1    15    1
    11     1     9    1
    12     9    10   ar
    13    10    11   ar
    14    11    12   ar
    15    12    13   ar
    16    13    14   ar
    17     1     2    1
    18     2     3    1
    19     3     4    1
    20     4     5    1
    21     5     6    1
    22     6     7    1
    23    21    16   ar
    24    14     9   ar
    25     7     2    1
    26     5     8    1
@<TRIPOS>MOLECULE
*****
 24 26 0 0 0
SMALL
GASTEIGER

@<TRIPOS>ATOM
      1 C         141.0817  142.2961  166.9297 C.3     1  UNL1        0.0847
      2 N         140.7779  141.8917  168.3419 N.3     1  UNL1       -0.2676
      3 C         140.4626  142.9372  169.3702 C.3     1  UNL1        0.0896
      4 C         140.1588  142.5328  170.7823 C.3     1  UNL1        0.0862
      5 N         140.1702  141.0829  171.1661 N.3     1  UNL1       -0.2951
      6 C         140.4854  140.0373  170.1378 C.3     1  UNL1        0.0862
      7 C         140.7893  140.4417  168.7257 C.3     1  UNL1        0.0896
      8 H         139.2421  140.8674  171.5302 H       1  UNL1        0.1233
      9 C         139.9689  142.4363  165.9337 C.ar    1  UNL1       -0.0075
     10 C         139.4933  143.7997  165.5276 C.ar    1  UNL1       -0.0030
     11 C         138.3804  143.9399  164.5316 C.ar    1  UNL1       -0.0003
     12 C         137.7433  142.7168  163.9418 C.ar    1  UNL1       -0.0000
     13 C         138.2189  141.3534  164.3480 C.ar    1  UNL1       -0.0003
     14 C         139.3317  141.2132  165.3439 C.ar    1  UNL1       -0.0030
     15 C         142.4984  142.5603  166.5136 C.3     1  UNL1        0.0499
     16 C         144.2866  141.9932  164.7161 C.ar    1  UNL1        0.1346
     17 C         145.0292  140.9795  163.8970 C.ar    1  UNL1        0.0366
     18 C         144.7262  139.5191  164.0563 C.ar    1  UNL1        0.0031
     19 C         143.6806  139.0724  165.0347 C.ar    1  UNL1       -0.0001
     20 C         142.9380  140.0862  165.8538 C.ar    1  UNL1       -0.0012
     21 C         143.2410  141.5465  165.6945 C.ar    1  UNL1        0.0135
     22 O         144.5896  143.4537  164.5568 O.3     1  UNL1       -0.4758
     23 C         142.7313  145.1059  163.8040 C.3     1  UNL1        0.0512
     24 C         143.9157  144.2459  163.4760 C.3     1  UNL1        0.2055
@<TRIPOS>BOND
     1    23    24    1
     2    24    22    1
     3    22    16    1
     4    16    17   ar
     5    17    18   ar
     6    18    19   ar
     7    19    20   ar
     8    20    21   ar
     9    21    15    1
    10     1    15    1
    11     1     9    1
    12     9    10   ar
    13    10    11   ar
    14    11    12   ar
    15    12    13   ar
    16    13    14   ar
    17     1     2    1
    18     2     3    1
    19     3     4    1
    20     4     5    1
    21     5     6    1
    22     6     7    1
    23    21    16   ar
    24    14     9   ar
    25     7     2    1
    26     5     8    1
@<TRIPOS>MOLECULE
*****
 24 26 0 0 0
SMALL
GASTEIGER

@<TRIPOS>ATOM
      1 C         142.0196  141.0642  166.6873 C.3     1  UNL1        0.0847
      2 N         142.2157  141.1890  168.1692 N.3     1  UNL1       -0.2676
      3 C         142.0740  142.5259  168.8345 C.3     1  UNL1        0.0896
      4 C         142.2701  142.6508  170.3164 C.3     1  UNL1        0.0862
      5 N         142.6078  141.4387  171.1329 N.3     1  UNL1       -0.2951
      6 C         142.7495  140.1018  170.4676 C.3     1  UNL1        0.0862
      7 C         142.5535  139.9770  168.9858 C.3     1  UNL1        0.0896
      8 H         141.8736  141.3422  171.8343 H       1  UNL1        0.1233
      9 C         143.1720  141.2980  165.7559 C.ar    1  UNL1       -0.0075
     10 C         143.7799  140.1467  165.0111 C.ar    1  UNL1       -0.0030
     11 C         144.9323  140.3806  164.0797 C.ar    1  UNL1       -0.0003
     12 C         145.4767  141.7658  163.8933 C.ar    1  UNL1       -0.0000
     13 C         144.8687  142.9172  164.6382 C.ar    1  UNL1       -0.0003
     14 C         143.7164  142.6833  165.5695 C.ar    1  UNL1       -0.0030
     15 C         140.6712  140.7055  166.1368 C.3     1  UNL1        0.0499
     16 C         138.5695  141.4129  164.7830 C.ar    1  UNL1        0.1346
     17 C         137.6650  142.4869  164.2554 C.ar    1  UNL1        0.0366
     18 C         137.9574  143.9274  164.5541 C.ar    1  UNL1        0.0031
     19 C         139.1545  144.2940  165.3804 C.ar    1  UNL1       -0.0001
     20 C         140.0591  143.2201  165.9079 C.ar    1  UNL1       -0.0012
     21 C         139.7666  141.7795  165.6092 C.ar    1  UNL1        0.0135
     22 O         138.2771  139.9723  164.4843 O.3     1  UNL1       -0.4758
     23 C         138.7235  137.8578  163.0423 C.3     1  UNL1        0.0512
     24 C         138.8086  139.3435  163.2305 C.3     1  UNL1        0.2055
@<TRIPOS>BOND
     1    23    24    1
     2    24    22    1
     3    22    16    1
     4    16    17   ar
     5    17    18   ar
     6    18    19   ar
     7    19    20   ar
     8    20    21   ar
     9    21    15    1
    10     1    15    1
    11     1     9    1
    12     9    10   ar
    13    10    11   ar
    14    11    12   ar
    15    12    13   ar
    16    13    14   ar
    17     1     2    1
    18     2     3    1
    19     3     4    1
    20     4     5    1
    21     5     6    1
    22     6     7    1
    23    21    16   ar
    24    14     9   ar
    25     7     2    1
    26     5     8    1
@<TRIPOS>MOLECULE
*****
 24 26 0 0 0
SMALL
GASTEIGER

@<TRIPOS>ATOM
      1 C         142.0744  142.5957  165.4757 C.3     1  UNL1        0.0847
      2 N         143.1129  142.6369  164.3941 N.3     1  UNL1       -0.2676
      3 C         143.2787  143.8727  163.5601 C.3     1  UNL1        0.0896
      4 C         144.3171  143.9139  162.4786 C.3     1  UNL1        0.0862
      5 N         145.1899  142.7194  162.2310 N.3     1  UNL1       -0.2951
      6 C         145.0242  141.4837  163.0649 C.3     1  UNL1        0.0862
      7 C         143.9857  141.4424  164.1464 C.3     1  UNL1        0.0896
      8 H         146.1542  143.0292  162.3520 H       1  UNL1        0.1233
      9 C         140.6245  142.7643  165.1301 C.ar    1  UNL1       -0.0075
     10 C         139.9670  144.1033  165.2869 C.ar    1  UNL1       -0.0030
     11 C         138.5170  144.2719  164.9413 C.ar    1  UNL1       -0.0003
     12 C         137.7248  143.1015  164.4389 C.ar    1  UNL1       -0.0000
     13 C         138.3823  141.7625  164.2821 C.ar    1  UNL1       -0.0003
     14 C         139.8322  141.5939  164.6277 C.ar    1  UNL1       -0.0030
     15 C         142.4858  142.3858  166.9028 C.3     1  UNL1        0.0499
     16 C         141.0358  140.5185  167.9802 C.ar    1  UNL1        0.1346
     17 C         140.0217  140.0852  168.9970 C.ar    1  UNL1        0.0366
     18 C         139.4436  141.0858  169.9533 C.ar    1  UNL1        0.0031
     19 C         139.8796  142.5198  169.8927 C.ar    1  UNL1       -0.0001
     20 C         140.8936  142.9531  168.8759 C.ar    1  UNL1       -0.0012
     21 C         141.4717  141.9525  167.9197 C.ar    1  UNL1        0.0135
     22 O         141.6139  139.5178  167.0239 O.3     1  UNL1       -0.4758
     23 C         143.7203  138.2561  166.1746 C.3     1  UNL1        0.0512
     24 C         142.9666  138.9249  167.2858 C.3     1  UNL1        0.2055
@<TRIPOS>BOND
     1    23    24    1
     2    24    22    1
     3    22    16    1
     4    16    17   ar
     5    17    18   ar
     6    18    19   ar
     7    19    20   ar
     8    20    21   ar
     9    21    15    1
    10     1    15    1
    11     1     9    1
    12     9    10   ar
    13    10    11   ar
    14    11    12   ar
    15    12    13   ar
    16    13    14   ar
    17     1     2    1
    18     2     3    1
    19     3     4    1
    20     4     5    1
    21     5     6    1
    22     6     7    1
    23    21    16   ar
    24    14     9   ar
    25     7     2    1
    26     5     8    1
@<TRIPOS>MOLECULE
*****
 24 26 0 0 0
SMALL
GASTEIGER

@<TRIPOS>ATOM
      1 C         142.5226  140.4815  165.4431 C.3     1  UNL1        0.0847
      2 N         142.2845  139.3927  164.4391 N.3     1  UNL1       -0.2676
      3 C         141.0590  138.5338  164.5406 C.3     1  UNL1        0.0896
      4 C         140.8209  137.4450  163.5367 C.3     1  UNL1        0.0862
      5 N         141.8084  137.2152  162.4313 N.3     1  UNL1       -0.2951
      6 C         143.0339  138.0740  162.3298 C.3     1  UNL1        0.0862
      7 C         143.2720  139.1628  163.3337 C.3     1  UNL1        0.0896
      8 H         141.2991  137.3239  161.5542 H       1  UNL1        0.1233
      9 C         142.7308  141.8938  164.9827 C.ar    1  UNL1       -0.0075
     10 C         144.0906  142.5201  165.0755 C.ar    1  UNL1       -0.0030
     11 C         144.2988  143.9325  164.6151 C.ar    1  UNL1       -0.0003
     12 C         143.1472  144.7184  164.0619 C.ar    1  UNL1       -0.0000
     13 C         141.7874  144.0921  163.9691 C.ar    1  UNL1       -0.0003
     14 C         141.5792  142.6798  164.4295 C.ar    1  UNL1       -0.0030
     15 C         142.5524  140.1579  166.9075 C.3     1  UNL1        0.0499
     16 C         140.6671  141.5442  168.0361 C.ar    1  UNL1        0.1346
     17 C         140.2325  142.5705  169.0399 C.ar    1  UNL1        0.0366
     18 C         141.2488  143.2370  169.9191 C.ar    1  UNL1        0.0031
     19 C         142.6997  142.8771  169.7944 C.ar    1  UNL1       -0.0001
     20 C         143.1342  141.8508  168.7905 C.ar    1  UNL1       -0.0012
     21 C         142.1179  141.1843  167.9114 C.ar    1  UNL1        0.0135
     22 O         139.6508  140.8776  167.1569 O.3     1  UNL1       -0.4758
     23 C         138.0534  138.8838  166.6848 C.3     1  UNL1        0.0512
     24 C         138.9773  139.6168  167.6116 C.3     1  UNL1        0.2055
@<TRIPOS>BOND
     1    23    24    1
     2    24    22    1
     3    22    16    1
     4    16    17   ar
     5    17    18   ar
     6    18    19   ar
     7    19    20   ar
     8    20    21   ar
     9    21    15    1
    10     1    15    1
    11     1     9    1
    12     9    10   ar
    13    10    11   ar
    14    11    12   ar
    15    12    13   ar
    16    13    14   ar
    17     1     2    1
    18     2     3    1
    19     3     4    1
    20     4     5    1
    21     5     6    1
    22     6     7    1
    23    21    16   ar
    24    14     9   ar
    25     7     2    1
    26     5     8    1
@<TRIPOS>MOLECULE
*****
 24 26 0 0 0
SMALL
GASTEIGER

@<TRIPOS>ATOM
      1 C         141.5112  142.1646  166.0379 C.3     1  UNL1        0.0847
      2 N         141.0385  143.2942  165.1715 N.3     1  UNL1       -0.2676
      3 C         139.5829  143.6551  165.1378 C.3     1  UNL1        0.0896
      4 C         139.1102  144.7847  164.2715 C.3     1  UNL1        0.0862
      5 N         140.0930  145.5534  163.4390 N.3     1  UNL1       -0.2951
      6 C         141.5485  145.1926  163.4727 C.3     1  UNL1        0.0862
      7 C         142.0213  144.0630  164.3390 C.3     1  UNL1        0.0896
      8 H         140.0247  146.5290  163.7287 H       1  UNL1        0.1233
      9 C         141.7920  142.4015  167.4921 C.ar    1  UNL1       -0.0075
     10 C         143.1675  142.1596  168.0395 C.ar    1  UNL1       -0.0030
     11 C         143.4483  142.3965  169.4939 C.ar    1  UNL1       -0.0003
     12 C         142.3536  142.8753  170.4008 C.ar    1  UNL1       -0.0000
     13 C         140.9782  143.1171  169.8534 C.ar    1  UNL1       -0.0003
     14 C         140.6974  142.8803  168.3991 C.ar    1  UNL1       -0.0030
     15 C         141.7031  140.7980  165.4498 C.3     1  UNL1        0.0499
     16 C         140.7804  138.4285  164.9171 C.ar    1  UNL1        0.1346
     17 C         139.6798  137.4131  165.0043 C.ar    1  UNL1        0.0366
     18 C         138.4011  137.7520  165.7115 C.ar    1  UNL1        0.0031
     19 C         138.2231  139.1062  166.3315 C.ar    1  UNL1       -0.0001
     20 C         139.3238  140.1216  166.2443 C.ar    1  UNL1       -0.0012
     21 C         140.6024  139.7827  165.5371 C.ar    1  UNL1        0.0135
     22 O         142.0591  138.0896  164.2098 O.3     1  UNL1       -0.4758
     23 C         141.3162  138.9215  161.8633 C.3     1  UNL1        0.0512
     24 C         142.0757  137.9493  162.7165 C.3     1  UNL1        0.2055
@<TRIPOS>BOND
     1    23    24    1
     2    24    22    1
     3    22    16    1
     4    16    17   ar
     5    17    18   ar
     6    18    19   ar
     7    19    20   ar
     8    20    21   ar
     9    21    15    1
    10     1    15    1
    11     1     9    1
    12     9    10   ar
    13    10    11   ar
    14    11    12   ar
    15    12    13   ar
    16    13    14   ar
    17     1     2    1
    18     2     3    1
    19     3     4    1
    20     4     5    1
    21     5     6    1
    22     6     7    1
    23    21    16   ar
    24    14     9   ar
    25     7     2    1
    26     5     8    1
@<TRIPOS>MOLECULE
*****
 24 26 0 0 0
SMALL
GASTEIGER

@<TRIPOS>ATOM
      1 C         141.3581  141.2377  167.0732 C.3     1  UNL1        0.0847
      2 N         141.4366  141.5630  168.5355 N.3     1  UNL1       -0.2676
      3 C         140.4438  140.9691  169.4903 C.3     1  UNL1        0.0896
      4 C         140.5223  141.2944  170.9525 C.3     1  UNL1        0.0862
      5 N         141.5935  142.2136  171.4598 N.3     1  UNL1       -0.2951
      6 C         142.5863  142.8075  170.5050 C.3     1  UNL1        0.0862
      7 C         142.5078  142.4822  169.0429 C.3     1  UNL1        0.0896
      8 H         142.1282  141.6888  172.1520 H       1  UNL1        0.1233
      9 C         140.2606  141.8205  166.2331 C.ar    1  UNL1       -0.0075
     10 C         140.1618  143.3064  166.0538 C.ar    1  UNL1       -0.0030
     11 C         139.0643  143.8892  165.2136 C.ar    1  UNL1       -0.0003
     12 C         138.0656  142.9860  164.5528 C.ar    1  UNL1       -0.0000
     13 C         138.1643  141.5000  164.7321 C.ar    1  UNL1       -0.0003
     14 C         139.2618  140.9172  165.5722 C.ar    1  UNL1       -0.0030
     15 C         142.3771  140.3296  166.4512 C.3     1  UNL1        0.0499
     16 C         143.9049  140.0005  164.3757 C.ar    1  UNL1        0.1346
     17 C         144.8971  140.5481  163.3932 C.ar    1  UNL1        0.0366
     18 C         145.3540  141.9726  163.5035 C.ar    1  UNL1        0.0031
     19 C         144.8185  142.8494  164.5965 C.ar    1  UNL1       -0.0001
     20 C         143.8262  142.3017  165.5790 C.ar    1  UNL1       -0.0012
     21 C         143.3694  140.8773  165.4686 C.ar    1  UNL1        0.0135
     22 O         143.4480  138.5760  164.2653 O.3     1  UNL1       -0.4758
     23 C         141.3441  139.2553  162.9007 C.3     1  UNL1        0.0512
     24 C         142.3392  138.2149  163.3218 C.3     1  UNL1        0.2055
@<TRIPOS>BOND
     1    23    24    1
     2    24    22    1
     3    22    16    1
     4    16    17   ar
     5    17    18   ar
     6    18    19   ar
     7    19    20   ar
     8    20    21   ar
     9    21    15    1
    10     1    15    1
    11     1     9    1
    12     9    10   ar
    13    10    11   ar
    14    11    12   ar
    15    12    13   ar
    16    13    14   ar
    17     1     2    1
    18     2     3    1
    19     3     4    1
    20     4     5    1
    21     5     6    1
    22     6     7    1
    23    21    16   ar
    24    14     9   ar
    25     7     2    1
    26     5     8    1
