@<TRIPOS>MOLECULE
*****
 31 33 0 0 0
SMALL
GASTEIGER

@<TRIPOS>ATOM
      1 C         139.3517  139.7302  166.6918 C.3     1  UNL1        0.0180
      2 C         139.9563  140.8922  167.4227 C.3     1  UNL1        0.0107
      3 C         141.1039  140.6718  168.3631 C.3     1  UNL1        0.0508
      4 C         142.0326  140.5225  167.1947 C.ar    1  UNL1       -0.0179
      5 C         142.3644  141.7122  166.3435 C.ar    1  UNL1       -0.0034
      6 C         143.2932  141.5629  165.1752 C.ar    1  UNL1        0.0064
      7 C         143.8902  140.2239  164.8579 C.ar    1  UNL1        0.0345
      8 BR        144.8190  140.0746  163.6895 Br      1  UNL1       -0.0490
      9 C         143.5584  139.0342  165.7091 C.ar    1  UNL1        0.0064
     10 C         142.6296  139.1834  166.8775 C.ar    1  UNL1       -0.0034
     11 C         142.4226  139.1233  169.9797 C.3     1  UNL1        0.0007
     12 C         142.2516  140.4513  169.3035 C.3     1  UNL1        0.0086
     13 C         143.2282  141.5587  169.5676 C.3     1  UNL1        0.0007
     14 C         140.1751  140.8211  169.5314 C.2     1  UNL1        0.0534
     15 O         140.0524  142.1440  170.2277 O.co2   1  UNL1       -0.5489
     16 O         139.3691  139.6474  170.0036 O.co2   1  UNL1       -0.5489
     17 C         138.3721  139.9701  165.5814 C.3     1  UNL1        0.0722
     18 N         138.8429  139.9913  164.1574 N.3     1  UNL1       -0.2715
     19 C         140.2581  139.6174  163.8297 C.3     1  UNL1        0.0896
     20 C         137.8985  140.3864  163.0610 C.3     1  UNL1        0.0728
     21 C         137.2818  141.7538  163.0589 C.3     1  UNL1        0.0303
     22 C         137.8788  142.8446  162.2201 C.3     1  UNL1        0.1252
     23 C         139.3155  143.2333  162.4070 C.2     1  UNL1        0.3513
     24 N         140.4910  142.6342  161.6936 N.2     1  UNL1       -0.0350
     25 C         141.7309  143.3200  162.1858 C.2     1  UNL1        0.2317
     26 C         143.1797  143.1451  161.8389 C.2     1  UNL1        0.0498
     27 C         144.2192  143.9933  162.5096 C.2     1  UNL1       -0.0002
     28 C         143.8099  145.0164  163.5274 C.2     1  UNL1       -0.0172
     29 C         142.3611  145.1913  163.8743 C.3     1  UNL1        0.1037
     30 C         141.3216  144.3431  163.2036 C.2     1  UNL1        0.2174
     31 N         139.8288  144.2895  163.3403 N.2     1  UNL1       -0.0389
@<TRIPOS>UNITY_ATOM_ATTR
15 1
charge -1
@<TRIPOS>BOND
     1    11    12    1
     2    12    13    1
     3    12     3    1
     4     3     2    1
     5     2     1    1
     6     1    17    1
     7    17    18    1
     8    18    19    1
     9    18    20    1
    10    20    21    1
    11    21    22    1
    12    22    23    1
    13    23    24    2
    14    24    25    1
    15    25    26    2
    16    26    27    1
    17    27    28    2
    18    28    29    1
    19    29    30    1
    20    30    31    2
    21     3    14    1
    22    14    15   ar
    23    14    16   ar
    24     3     4    1
    25     4     5   ar
    26     5     6   ar
    27     6     7   ar
    28     7     8    1
    29     7     9   ar
    30     9    10   ar
    31    31    23    1
    32    10     4   ar
    33    30    25    1
@<TRIPOS>MOLECULE
*****
 31 33 0 0 0
SMALL
GASTEIGER

@<TRIPOS>ATOM
      1 C         143.0557  139.1428  166.5208 C.3     1  UNL1        0.0180
      2 C         141.8468  139.8328  167.0797 C.3     1  UNL1        0.0107
      3 C         142.0112  140.9766  168.0360 C.3     1  UNL1        0.0508
      4 C         142.2284  141.9101  166.8822 C.ar    1  UNL1       -0.0179
      5 C         143.6070  142.4157  166.5757 C.ar    1  UNL1       -0.0034
      6 C         143.8242  143.3492  165.4219 C.ar    1  UNL1        0.0064
      7 C         142.6628  143.7771  164.5745 C.ar    1  UNL1        0.0345
      8 BR        142.8800  144.7107  163.4206 Br      1  UNL1       -0.0490
      9 C         141.2842  143.2716  164.8809 C.ar    1  UNL1        0.0064
     10 C         141.0670  142.3380  166.0348 C.ar    1  UNL1       -0.0034
     11 C         143.5080  142.3781  169.6314 C.3     1  UNL1        0.0007
     12 C         142.1756  142.1205  168.9924 C.3     1  UNL1        0.0086
     13 C         141.0077  143.0066  169.3097 C.3     1  UNL1        0.0007
     14 C         141.7940  140.0431  169.1898 C.2     1  UNL1        0.0534
     15 O         140.4001  139.7014  169.6260 O.co2   1  UNL1       -0.5489
     16 O         142.9708  139.4512  169.9075 O.co2   1  UNL1       -0.5489
     17 C         142.9030  138.1393  165.4163 C.3     1  UNL1        0.0722
     18 N         142.3914  138.5728  164.0746 N.3     1  UNL1       -0.2715
     19 C         142.6994  139.9489  163.5633 C.3     1  UNL1        0.0896
     20 C         141.5717  137.6302  163.2440 C.3     1  UNL1        0.0728
     21 C         140.1984  137.2318  163.6970 C.3     1  UNL1        0.0303
     22 C         138.9896  137.8516  163.0609 C.3     1  UNL1        0.1252
     23 C         138.8046  139.3398  163.0940 C.2     1  UNL1        0.3513
     24 N         139.2953  140.3125  162.0630 N.2     1  UNL1       -0.0350
     25 C         138.8903  141.6904  162.4958 C.2     1  UNL1        0.2317
     26 C         139.1006  143.0397  161.8753 C.2     1  UNL1        0.0498
     27 C         138.5698  144.2679  162.5532 C.2     1  UNL1       -0.0002
     28 C         137.8287  144.1468  163.8517 C.2     1  UNL1       -0.0172
     29 C         137.6184  142.7975  164.4723 C.3     1  UNL1        0.1037
     30 C         138.1492  141.5693  163.7943 C.2     1  UNL1        0.2174
     31 N         138.0962  140.1165  164.1640 N.2     1  UNL1       -0.0389
@<TRIPOS>UNITY_ATOM_ATTR
15 1
charge -1
@<TRIPOS>BOND
     1    11    12    1
     2    12    13    1
     3    12     3    1
     4     3     2    1
     5     2     1    1
     6     1    17    1
     7    17    18    1
     8    18    19    1
     9    18    20    1
    10    20    21    1
    11    21    22    1
    12    22    23    1
    13    23    24    2
    14    24    25    1
    15    25    26    2
    16    26    27    1
    17    27    28    2
    18    28    29    1
    19    29    30    1
    20    30    31    2
    21     3    14    1
    22    14    15   ar
    23    14    16   ar
    24     3     4    1
    25     4     5   ar
    26     5     6   ar
    27     6     7   ar
    28     7     8    1
    29     7     9   ar
    30     9    10   ar
    31    31    23    1
    32    10     4   ar
    33    30    25    1
@<TRIPOS>MOLECULE
*****
 31 33 0 0 0
SMALL
GASTEIGER

@<TRIPOS>ATOM
      1 C         141.7566  142.4569  165.3592 C.3     1  UNL1        0.0180
      2 C         143.0343  141.6941  165.5474 C.3     1  UNL1        0.0107
      3 C         143.0152  140.1946  165.5771 C.3     1  UNL1        0.0508
      4 C         142.1986  140.2299  166.8348 C.ar    1  UNL1       -0.0179
      5 C         142.8310  140.6516  168.1280 C.ar    1  UNL1       -0.0034
      6 C         142.0144  140.6870  169.3858 C.ar    1  UNL1        0.0064
      7 C         140.5654  140.3005  169.3504 C.ar    1  UNL1        0.0345
      8 BR        139.7489  140.3358  170.6082 Br      1  UNL1       -0.0490
      9 C         139.9331  139.8788  168.0573 C.ar    1  UNL1        0.0064
     10 C         140.7497  139.8434  166.7994 C.ar    1  UNL1       -0.0034
     11 C         143.8762  137.9525  166.5680 C.3     1  UNL1        0.0007
     12 C         142.9960  138.6949  165.6068 C.3     1  UNL1        0.0086
     13 C         142.0965  137.9378  164.6753 C.3     1  UNL1        0.0007
     14 C         143.8317  140.1593  164.3194 C.2     1  UNL1        0.0534
     15 O         143.1589  140.2838  162.9845 O.co2   1  UNL1       -0.5489
     16 O         145.3212  139.9994  164.3964 O.co2   1  UNL1       -0.5489
     17 C         141.3853  142.9747  164.0012 C.3     1  UNL1        0.0722
     18 N         141.1467  144.4415  163.7973 N.3     1  UNL1       -0.2715
     19 C         142.3065  145.3921  163.7612 C.3     1  UNL1        0.0896
     20 C         139.7483  144.9577  163.6295 C.3     1  UNL1        0.0728
     21 C         138.7592  144.8216  164.7489 C.3     1  UNL1        0.0303
     22 C         137.5688  143.9225  164.5928 C.3     1  UNL1        0.1252
     23 C         137.7423  142.5365  164.0460 C.2     1  UNL1        0.3513
     24 N         137.4385  142.0973  162.6443 N.2     1  UNL1       -0.0350
     25 C         137.7585  140.6358  162.5369 C.2     1  UNL1        0.2317
     26 C         137.6579  139.6675  161.3957 C.2     1  UNL1        0.0498
     27 C         138.0590  138.2353  161.5898 C.2     1  UNL1       -0.0002
     28 C         138.5607  137.7712  162.9250 C.2     1  UNL1       -0.0172
     29 C         138.6612  138.7395  164.0662 C.3     1  UNL1        0.1037
     30 C         138.2602  140.1717  163.8722 C.2     1  UNL1        0.2174
     31 N         138.2502  141.3465  164.8048 N.2     1  UNL1       -0.0389
@<TRIPOS>UNITY_ATOM_ATTR
15 1
charge -1
@<TRIPOS>BOND
     1    11    12    1
     2    12    13    1
     3    12     3    1
     4     3     2    1
     5     2     1    1
     6     1    17    1
     7    17    18    1
     8    18    19    1
     9    18    20    1
    10    20    21    1
    11    21    22    1
    12    22    23    1
    13    23    24    2
    14    24    25    1
    15    25    26    2
    16    26    27    1
    17    27    28    2
    18    28    29    1
    19    29    30    1
    20    30    31    2
    21     3    14    1
    22    14    15   ar
    23    14    16   ar
    24     3     4    1
    25     4     5   ar
    26     5     6   ar
    27     6     7   ar
    28     7     8    1
    29     7     9   ar
    30     9    10   ar
    31    31    23    1
    32    10     4   ar
    33    30    25    1
@<TRIPOS>MOLECULE
*****
 31 33 0 0 0
SMALL
GASTEIGER

@<TRIPOS>ATOM
      1 C         142.9300  139.2240  167.1465 C.3     1  UNL1        0.0180
      2 C         142.7008  140.7063  167.1571 C.3     1  UNL1        0.0107
      3 C         141.6381  141.2946  168.0372 C.3     1  UNL1        0.0508
      4 C         140.6538  141.2044  166.9090 C.ar    1  UNL1       -0.0179
      5 C         140.6858  142.2170  165.8029 C.ar    1  UNL1       -0.0034
      6 C         139.7014  142.1268  164.6747 C.ar    1  UNL1        0.0064
      7 C         138.6849  141.0239  164.6527 C.ar    1  UNL1        0.0345
      8 BR        137.7005  140.9337  163.5244 Br      1  UNL1       -0.0490
      9 C         138.6529  140.0112  165.7588 C.ar    1  UNL1        0.0064
     10 C         139.6373  140.1015  166.8870 C.ar    1  UNL1       -0.0034
     11 C         140.4412  143.3720  169.0381 C.3     1  UNL1        0.0007
     12 C         140.5754  141.8829  168.9174 C.3     1  UNL1        0.0086
     13 C         139.6470  140.9822  169.6767 C.3     1  UNL1        0.0007
     14 C         142.6225  141.3849  169.1654 C.2     1  UNL1        0.0534
     15 O         143.6441  142.4831  169.1833 O.co2   1  UNL1       -0.5489
     16 O         142.5854  140.3769  170.2757 O.co2   1  UNL1       -0.5489
     17 C         143.6164  138.5795  165.9788 C.3     1  UNL1        0.0722
     18 N         143.2369  138.9647  164.5797 N.3     1  UNL1       -0.2715
     19 C         141.8284  138.7669  164.1032 C.3     1  UNL1        0.0896
     20 C         144.2659  139.5479  163.6570 C.3     1  UNL1        0.0728
     21 C         145.3089  140.4836  164.1922 C.3     1  UNL1        0.0303
     22 C         145.5594  141.7963  163.5111 C.3     1  UNL1        0.1252
     23 C         144.4042  142.6589  163.0971 C.2     1  UNL1        0.3513
     24 N         143.8366  142.7678  161.7129 N.2     1  UNL1       -0.0350
     25 C         142.6954  143.7403  161.7550 C.2     1  UNL1        0.2317
     26 C         141.7639  144.2412  160.6914 C.2     1  UNL1        0.0498
     27 C         140.6946  145.2344  161.0380 C.2     1  UNL1       -0.0002
     28 C         140.5568  145.7266  162.4482 C.2     1  UNL1       -0.0172
     29 C         141.4883  145.2257  163.5118 C.3     1  UNL1        0.1037
     30 C         142.5576  144.2325  163.1652 C.2     1  UNL1        0.2174
     31 N         143.6137  143.5642  163.9947 N.2     1  UNL1       -0.0389
@<TRIPOS>UNITY_ATOM_ATTR
15 1
charge -1
@<TRIPOS>BOND
     1    11    12    1
     2    12    13    1
     3    12     3    1
     4     3     2    1
     5     2     1    1
     6     1    17    1
     7    17    18    1
     8    18    19    1
     9    18    20    1
    10    20    21    1
    11    21    22    1
    12    22    23    1
    13    23    24    2
    14    24    25    1
    15    25    26    2
    16    26    27    1
    17    27    28    2
    18    28    29    1
    19    29    30    1
    20    30    31    2
    21     3    14    1
    22    14    15   ar
    23    14    16   ar
    24     3     4    1
    25     4     5   ar
    26     5     6   ar
    27     6     7   ar
    28     7     8    1
    29     7     9   ar
    30     9    10   ar
    31    31    23    1
    32    10     4   ar
    33    30    25    1
@<TRIPOS>MOLECULE
*****
 31 33 0 0 0
SMALL
GASTEIGER

@<TRIPOS>ATOM
      1 C         139.3899  139.1349  166.0948 C.3     1  UNL1        0.0180
      2 C         139.6313  140.4045  166.8562 C.3     1  UNL1        0.0107
      3 C         140.7143  140.4632  167.8924 C.3     1  UNL1        0.0508
      4 C         141.7501  140.3079  166.8186 C.ar    1  UNL1       -0.0179
      5 C         141.9510  141.3973  165.8072 C.ar    1  UNL1       -0.0034
      6 C         142.9868  141.2420  164.7334 C.ar    1  UNL1        0.0064
      7 C         143.8217  139.9974  164.6711 C.ar    1  UNL1        0.0345
      8 BR        144.8575  139.8421  163.5972 Br      1  UNL1       -0.0490
      9 C         143.6208  138.9080  165.6825 C.ar    1  UNL1        0.0064
     10 C         142.5849  139.0633  166.7563 C.ar    1  UNL1       -0.0034
     11 C         141.9655  139.3935  169.9024 C.3     1  UNL1        0.0007
     12 C         141.7973  140.5219  168.9286 C.3     1  UNL1        0.0086
     13 C         142.7121  141.7090  168.9909 C.3     1  UNL1        0.0007
     14 C         139.6785  140.6185  168.9662 C.2     1  UNL1        0.0534
     15 O         138.6762  139.5284  169.2047 O.co2   1  UNL1       -0.5489
     16 O         139.6450  141.8641  169.8014 O.co2   1  UNL1       -0.5489
     17 C         138.6736  139.1751  164.7774 C.3     1  UNL1        0.0722
     18 N         139.2191  138.4169  163.6038 N.3     1  UNL1       -0.2715
     19 C         140.6890  138.1325  163.5121 C.3     1  UNL1        0.0896
     20 C         138.2946  137.9430  162.5217 C.3     1  UNL1        0.0728
     21 C         138.3610  138.5588  161.1556 C.3     1  UNL1        0.0303
     22 C         137.7856  139.9238  160.9195 C.3     1  UNL1        0.1252
     23 C         138.1430  141.0570  161.8349 C.2     1  UNL1        0.3513
     24 N         139.4893  141.7089  161.9471 N.2     1  UNL1       -0.0350
     25 C         139.3952  142.7921  162.9804 C.2     1  UNL1        0.2317
     26 C         140.4069  143.7647  163.5099 C.2     1  UNL1        0.0498
     27 C         140.0142  144.7549  164.5660 C.2     1  UNL1       -0.0002
     28 C         138.6098  144.7725  165.0925 C.2     1  UNL1       -0.0172
     29 C         137.5981  143.7999  164.5630 C.3     1  UNL1        0.1037
     30 C         137.9908  142.8097  163.5069 C.2     1  UNL1        0.2174
     31 N         137.2169  141.7374  162.7990 N.2     1  UNL1       -0.0389
@<TRIPOS>UNITY_ATOM_ATTR
15 1
charge -1
@<TRIPOS>BOND
     1    11    12    1
     2    12    13    1
     3    12     3    1
     4     3     2    1
     5     2     1    1
     6     1    17    1
     7    17    18    1
     8    18    19    1
     9    18    20    1
    10    20    21    1
    11    21    22    1
    12    22    23    1
    13    23    24    2
    14    24    25    1
    15    25    26    2
    16    26    27    1
    17    27    28    2
    18    28    29    1
    19    29    30    1
    20    30    31    2
    21     3    14    1
    22    14    15   ar
    23    14    16   ar
    24     3     4    1
    25     4     5   ar
    26     5     6   ar
    27     6     7   ar
    28     7     8    1
    29     7     9   ar
    30     9    10   ar
    31    31    23    1
    32    10     4   ar
    33    30    25    1
@<TRIPOS>MOLECULE
*****
 31 33 0 0 0
SMALL
GASTEIGER

@<TRIPOS>ATOM
      1 C         141.6504  143.8742  162.0648 C.3     1  UNL1        0.0180
      2 C         142.1598  142.6043  162.6795 C.3     1  UNL1        0.0107
      3 C         143.4056  142.6224  163.5146 C.3     1  UNL1        0.0508
      4 C         142.6433  142.0336  164.6645 C.ar    1  UNL1       -0.0179
      5 C         142.9723  140.6547  165.1549 C.ar    1  UNL1       -0.0034
      6 C         142.2100  140.0659  166.3047 C.ar    1  UNL1        0.0064
      7 C         141.1187  140.8560  166.9643 C.ar    1  UNL1        0.0345
      8 BR        140.3564  140.2671  168.1142 Br      1  UNL1       -0.0490
      9 C         140.7898  142.2348  166.4739 C.ar    1  UNL1        0.0064
     10 C         141.5521  142.8237  165.3240 C.ar    1  UNL1       -0.0034
     11 C         144.7712  143.5992  165.4973 C.3     1  UNL1        0.0007
     12 C         144.6514  142.6405  164.3499 C.3     1  UNL1        0.0086
     13 C         145.7774  141.7000  164.0377 C.3     1  UNL1        0.0007
     14 C         144.1679  143.2112  162.3648 C.2     1  UNL1        0.0534
     15 O         144.5309  142.3544  161.1883 O.co2   1  UNL1       -0.5489
     16 O         144.5672  144.6569  162.3913 O.co2   1  UNL1       -0.5489
     17 C         140.2433  143.9465  161.5500 C.3     1  UNL1        0.0722
     18 N         139.3190  145.0205  162.0420 N.3     1  UNL1       -0.2715
     19 C         139.5511  146.4488  161.6469 C.3     1  UNL1        0.0896
     20 C         138.1625  144.6662  162.9292 C.3     1  UNL1        0.0728
     21 C         137.5216  143.3143  162.8220 C.3     1  UNL1        0.0303
     22 C         137.5315  142.3841  163.9986 C.3     1  UNL1        0.1252
     23 C         138.3614  141.1352  163.9604 C.2     1  UNL1        0.3513
     24 N         138.2604  139.9799  164.9118 N.2     1  UNL1       -0.0350
     25 C         139.2746  138.9530  164.5034 C.2     1  UNL1        0.2317
     26 C         139.6293  137.6111  165.0722 C.2     1  UNL1        0.0498
     27 C         140.7120  136.7899  164.4372 C.2     1  UNL1       -0.0002
     28 C         141.4399  137.3104  163.2334 C.2     1  UNL1       -0.0172
     29 C         141.0851  138.6522  162.6646 C.3     1  UNL1        0.1037
     30 C         140.0025  139.4735  163.2996 C.2     1  UNL1        0.2174
     31 N         139.4381  140.8222  162.9640 N.2     1  UNL1       -0.0389
@<TRIPOS>UNITY_ATOM_ATTR
15 1
charge -1
@<TRIPOS>BOND
     1    11    12    1
     2    12    13    1
     3    12     3    1
     4     3     2    1
     5     2     1    1
     6     1    17    1
     7    17    18    1
     8    18    19    1
     9    18    20    1
    10    20    21    1
    11    21    22    1
    12    22    23    1
    13    23    24    2
    14    24    25    1
    15    25    26    2
    16    26    27    1
    17    27    28    2
    18    28    29    1
    19    29    30    1
    20    30    31    2
    21     3    14    1
    22    14    15   ar
    23    14    16   ar
    24     3     4    1
    25     4     5   ar
    26     5     6   ar
    27     6     7   ar
    28     7     8    1
    29     7     9   ar
    30     9    10   ar
    31    31    23    1
    32    10     4   ar
    33    30    25    1
@<TRIPOS>MOLECULE
*****
 31 33 0 0 0
SMALL
GASTEIGER

@<TRIPOS>ATOM
      1 C         143.3202  139.4252  165.2869 C.3     1  UNL1        0.0180
      2 C         142.1609  140.2982  164.9078 C.3     1  UNL1        0.0107
      3 C         140.7616  139.7640  164.9893 C.3     1  UNL1        0.0508
      4 C         140.5797  140.4429  166.3144 C.ar    1  UNL1       -0.0179
      5 C         140.1862  139.6415  167.5199 C.ar    1  UNL1       -0.0034
      6 C         140.0042  140.3203  168.8451 C.ar    1  UNL1        0.0064
      7 C         140.2157  141.8005  168.9648 C.ar    1  UNL1        0.0345
      8 BR        140.0337  142.4793  170.2901 Br      1  UNL1       -0.0490
      9 C         140.6091  142.6019  167.7594 C.ar    1  UNL1        0.0064
     10 C         140.7911  141.9230  166.4342 C.ar    1  UNL1       -0.0034
     11 C         138.1953  140.1689  164.9926 C.3     1  UNL1        0.0007
     12 C         139.3623  139.2298  165.0709 C.3     1  UNL1        0.0086
     13 C         139.1300  137.7566  165.2306 C.3     1  UNL1        0.0007
     14 C         140.9436  139.0852  163.6642 C.2     1  UNL1        0.0534
     15 O         141.6130  137.7447  163.5938 O.co2   1  UNL1       -0.5489
     16 O         140.4561  139.7469  162.4093 O.co2   1  UNL1       -0.5489
     17 C         144.6250  139.5526  164.5579 C.3     1  UNL1        0.0722
     18 N         144.7159  140.4038  163.3261 N.3     1  UNL1       -0.2715
     19 C         144.2448  139.8669  162.0071 C.3     1  UNL1        0.0896
     20 C         145.2778  141.7918  163.4134 C.3     1  UNL1        0.0728
     21 C         144.8441  142.8396  162.4315 C.3     1  UNL1        0.0303
     22 C         144.1005  144.0520  162.9080 C.3     1  UNL1        0.1252
     23 C         142.6182  143.9843  163.1279 C.2     1  UNL1        0.3513
     24 N         141.8440  144.7498  164.1596 N.2     1  UNL1       -0.0350
     25 C         140.3972  144.3779  164.0240 C.2     1  UNL1        0.2317
     26 C         139.1736  144.8170  164.7722 C.2     1  UNL1        0.0498
     27 C         137.8299  144.2606  164.4047 C.2     1  UNL1       -0.0002
     28 C         137.7099  143.2652  163.2891 C.2     1  UNL1       -0.0172
     29 C         138.9336  142.8261  162.5409 C.3     1  UNL1        0.1037
     30 C         140.2772  143.3824  162.9083 C.2     1  UNL1        0.2174
     31 N         141.6498  143.1392  162.3545 N.2     1  UNL1       -0.0389
@<TRIPOS>UNITY_ATOM_ATTR
15 1
charge -1
@<TRIPOS>BOND
     1    11    12    1
     2    12    13    1
     3    12     3    1
     4     3     2    1
     5     2     1    1
     6     1    17    1
     7    17    18    1
     8    18    19    1
     9    18    20    1
    10    20    21    1
    11    21    22    1
    12    22    23    1
    13    23    24    2
    14    24    25    1
    15    25    26    2
    16    26    27    1
    17    27    28    2
    18    28    29    1
    19    29    30    1
    20    30    31    2
    21     3    14    1
    22    14    15   ar
    23    14    16   ar
    24     3     4    1
    25     4     5   ar
    26     5     6   ar
    27     6     7   ar
    28     7     8    1
    29     7     9   ar
    30     9    10   ar
    31    31    23    1
    32    10     4   ar
    33    30    25    1
@<TRIPOS>MOLECULE
*****
 31 33 0 0 0
SMALL
GASTEIGER

@<TRIPOS>ATOM
      1 C         141.9789  144.0827  163.2866 C.3     1  UNL1        0.0180
      2 C         141.1901  142.8244  163.4971 C.3     1  UNL1        0.0107
      3 C         139.7021  142.8927  163.6734 C.3     1  UNL1        0.0508
      4 C         139.8416  142.3451  165.0628 C.ar    1  UNL1       -0.0179
      5 C         140.4570  143.1858  166.1420 C.ar    1  UNL1       -0.0034
      6 C         140.5965  142.6381  167.5315 C.ar    1  UNL1        0.0064
      7 C         140.1206  141.2499  167.8418 C.ar    1  UNL1        0.0345
      8 BR        140.2601  140.7023  169.2314 Br      1  UNL1       -0.0490
      9 C         139.5052  140.4093  166.7627 C.ar    1  UNL1        0.0064
     10 C         139.3657  140.9569  165.3731 C.ar    1  UNL1       -0.0034
     11 C         137.6109  144.0134  164.7323 C.3     1  UNL1        0.0007
     12 C         138.2140  142.9611  163.8497 C.3     1  UNL1        0.0086
     13 C         137.3291  141.9771  163.1436 C.3     1  UNL1        0.0007
     14 C         139.5626  143.4403  162.2839 C.2     1  UNL1        0.0534
     15 O         138.9702  144.8017  162.0703 O.co2   1  UNL1       -0.5489
     16 O         140.0155  142.6265  161.1080 O.co2   1  UNL1       -0.5489
     17 C         143.4424  144.0057  162.9666 C.3     1  UNL1        0.0722
     18 N         144.3736  143.2721  163.8857 N.3     1  UNL1       -0.2715
     19 C         144.4545  143.6554  165.3337 C.3     1  UNL1        0.0896
     20 C         145.2239  142.1553  163.3569 C.3     1  UNL1        0.0728
     21 C         145.3781  140.8906  164.1485 C.3     1  UNL1        0.0303
     22 C         144.9595  139.5783  163.5548 C.3     1  UNL1        0.1252
     23 C         143.5045  139.2239  163.4690 C.2     1  UNL1        0.3513
     24 N         142.5361  139.7185  162.4358 N.2     1  UNL1       -0.0350
     25 C         141.1955  139.1131  162.7295 C.2     1  UNL1        0.2317
     26 C         139.8655  139.2406  162.0479 C.2     1  UNL1        0.0498
     27 C         138.6754  138.4993  162.5809 C.2     1  UNL1       -0.0002
     28 C         138.8153  137.6305  163.7957 C.2     1  UNL1       -0.0172
     29 C         140.1453  137.5030  164.4773 C.3     1  UNL1        0.1037
     30 C         141.3354  138.2442  163.9443 C.2     1  UNL1        0.2174
     31 N         142.7625  138.3128  164.4012 N.2     1  UNL1       -0.0389
@<TRIPOS>UNITY_ATOM_ATTR
15 1
charge -1
@<TRIPOS>BOND
     1    11    12    1
     2    12    13    1
     3    12     3    1
     4     3     2    1
     5     2     1    1
     6     1    17    1
     7    17    18    1
     8    18    19    1
     9    18    20    1
    10    20    21    1
    11    21    22    1
    12    22    23    1
    13    23    24    2
    14    24    25    1
    15    25    26    2
    16    26    27    1
    17    27    28    2
    18    28    29    1
    19    29    30    1
    20    30    31    2
    21     3    14    1
    22    14    15   ar
    23    14    16   ar
    24     3     4    1
    25     4     5   ar
    26     5     6   ar
    27     6     7   ar
    28     7     8    1
    29     7     9   ar
    30     9    10   ar
    31    31    23    1
    32    10     4   ar
    33    30    25    1
@<TRIPOS>MOLECULE
*****
 31 33 0 0 0
SMALL
GASTEIGER

@<TRIPOS>ATOM
      1 C         140.5516  142.9782  166.4425 C.3     1  UNL1        0.0180
      2 C         141.5229  142.4128  167.4359 C.3     1  UNL1        0.0107
      3 C         141.0638  141.3959  168.4384 C.3     1  UNL1        0.0508
      4 C         141.0506  140.3459  167.3673 C.ar    1  UNL1       -0.0179
      5 C         142.3421  139.7768  166.8589 C.ar    1  UNL1       -0.0034
      6 C         142.3289  138.7268  165.7878 C.ar    1  UNL1        0.0064
      7 C         141.0243  138.2459  165.2250 C.ar    1  UNL1        0.0345
      8 BR        141.0111  137.1959  164.1538 Br      1  UNL1       -0.0490
      9 C         139.7329  138.8150  165.7333 C.ar    1  UNL1        0.0064
     10 C         139.7460  139.8650  166.8045 C.ar    1  UNL1       -0.0034
     11 C         141.5846  139.4029  170.0217 C.3     1  UNL1        0.0007
     12 C         140.6047  140.3789  169.4409 C.3     1  UNL1        0.0086
     13 C         139.1658  140.3379  169.8626 C.3     1  UNL1        0.0007
     14 C         141.0771  142.4459  169.5095 C.2     1  UNL1        0.0534
     15 O         142.2709  142.5871  170.4066 O.co2   1  UNL1       -0.5489
     16 O         139.8964  143.3547  169.6835 O.co2   1  UNL1       -0.5489
     17 C         141.0010  143.2834  165.0443 C.3     1  UNL1        0.0722
     18 N         140.5505  144.5455  164.3704 N.3     1  UNL1       -0.2715
     19 C         141.4312  145.2078  163.3526 C.3     1  UNL1        0.0896
     20 C         139.2193  145.1453  164.7142 C.3     1  UNL1        0.0728
     21 C         137.9595  144.3731  164.4559 C.3     1  UNL1        0.0303
     22 C         137.6122  143.9499  163.0594 C.3     1  UNL1        0.1252
     23 C         138.0604  142.6131  162.5474 C.2     1  UNL1        0.3513
     24 N         137.2646  141.3421  162.5862 N.2     1  UNL1       -0.0350
     25 C         138.0954  140.2560  161.9696 C.2     1  UNL1        0.2317
     26 C         137.8289  138.7985  161.7362 C.2     1  UNL1        0.0498
     27 C         138.8716  137.9406  161.0829 C.2     1  UNL1       -0.0002
     28 C         140.1808  138.5403  160.6630 C.2     1  UNL1       -0.0172
     29 C         140.4473  139.9979  160.8964 C.3     1  UNL1        0.1037
     30 C         139.4046  140.8557  161.5497 C.2     1  UNL1        0.2174
     31 N         139.3829  142.3124  161.9068 N.2     1  UNL1       -0.0389
@<TRIPOS>UNITY_ATOM_ATTR
15 1
charge -1
@<TRIPOS>BOND
     1    11    12    1
     2    12    13    1
     3    12     3    1
     4     3     2    1
     5     2     1    1
     6     1    17    1
     7    17    18    1
     8    18    19    1
     9    18    20    1
    10    20    21    1
    11    21    22    1
    12    22    23    1
    13    23    24    2
    14    24    25    1
    15    25    26    2
    16    26    27    1
    17    27    28    2
    18    28    29    1
    19    29    30    1
    20    30    31    2
    21     3    14    1
    22    14    15   ar
    23    14    16   ar
    24     3     4    1
    25     4     5   ar
    26     5     6   ar
    27     6     7   ar
    28     7     8    1
    29     7     9   ar
    30     9    10   ar
    31    31    23    1
    32    10     4   ar
    33    30    25    1
