@<TRIPOS>MOLECULE
*****
 37 41 0 0 0
SMALL
GASTEIGER

@<TRIPOS>ATOM
      1 C         139.0650  146.1616  155.2888 C.2     1  UNL1        0.2495
      2 O         137.7995  145.4856  154.8512 O.2     1  UNL1       -0.2699
      3 N         139.8676  145.5909  156.4202 N.am    1  UNL1       -0.2660
      4 C         141.1331  146.2669  156.8578 C.3     1  UNL1        0.1160
      5 C         141.9357  145.6962  157.9893 C.3     1  UNL1        0.1197
      6 N         141.4727  144.4495  158.6831 N.am    1  UNL1       -0.2555
      7 C         140.2072  143.7735  158.2455 C.2     1  UNL1        0.2497
      8 O         139.7443  142.5268  158.9393 O.2     1  UNL1       -0.2727
      9 C         139.4046  144.3442  157.1141 C.3     1  UNL1        0.1799
     10 C         139.5051  149.9962  154.3654 C.ar    1  UNL1        0.1059
     11 C         140.4536  149.9018  153.2073 C.ar    1  UNL1        0.0183
     12 C         140.9393  148.5607  152.7430 C.ar    1  UNL1        0.0015
     13 C         140.4764  147.3140  153.4368 C.ar    1  UNL1        0.0046
     14 C         139.5279  147.4084  154.5949 C.ar    1  UNL1        0.0549
     15 C         139.0422  148.7495  155.0592 C.ar    1  UNL1        0.0229
     16 C         138.5337  152.6784  155.2940 C.3     1  UNL1        0.1816
     17 S         139.0194  151.3373  154.8297 S.O2    1  UNL1        0.0105
     18 O         138.0339  150.6654  155.7393 O.2     1  UNL1       -0.1686
     19 O         140.0050  152.0091  153.9201 O.2     1  UNL1       -0.1686
     20 C         142.2753  143.8788  159.8145 C.ar    1  UNL1        0.0541
     21 C         141.9485  144.2536  161.2297 C.ar    1  UNL1        0.0180
     22 C         142.7512  143.6829  162.3611 C.ar    1  UNL1        0.0382
     23 C         143.8806  142.7374  162.0774 C.ar    1  UNL1        0.1385
     24 C         144.2074  142.3626  160.6622 C.ar    1  UNL1        0.0382
     25 C         143.4048  142.9333  159.5308 C.ar    1  UNL1        0.0180
     26 O         144.6832  142.1667  163.2088 O.3     1  UNL1       -0.4791
     27 C         143.9967  141.7243  164.4669 C.3     1  UNL1        0.1687
     28 C         143.4654  140.3261  164.5795 C.3     1  UNL1        0.0609
     29 C         142.7788  139.8837  165.8377 C.3     1  UNL1        0.0758
     30 N         142.6237  140.8394  166.9832 N.3     1  UNL1       -0.2737
     31 C         143.1550  142.2377  166.8707 C.3     1  UNL1        0.0758
     32 C         143.8415  142.6802  165.6125 C.3     1  UNL1        0.0609
     33 C         141.9372  140.3970  168.2414 C.3     1  UNL1        0.0575
     34 C         142.5357  139.5413  169.3183 C.3     1  UNL1        0.0160
     35 C         141.5000  139.3480  170.3860 C.3     1  UNL1        0.0014
     36 C         140.2614  140.0843  169.9691 C.3     1  UNL1        0.0014
     37 C         140.5316  140.7325  168.6436 C.3     1  UNL1        0.0160
@<TRIPOS>BOND
     1    16    17    1
     2    17    18    2
     3    17    19    2
     4    17    10    1
     5    10    11   ar
     6    11    12   ar
     7    12    13   ar
     8    13    14   ar
     9    14     1    1
    10     1     2    2
    11     1     3   am
    12     3     4    1
    13     4     5    1
    14     5     6    1
    15     6    20    1
    16    20    21   ar
    17    21    22   ar
    18    22    23   ar
    19    23    26    1
    20    26    27    1
    21    27    28    1
    22    28    29    1
    23    29    30    1
    24    30    33    1
    25    33    34    1
    26    34    35    1
    27    35    36    1
    28    36    37    1
    29    30    31    1
    30    31    32    1
    31    23    24   ar
    32    24    25   ar
    33     6     7   am
    34     7     8    2
    35     7     9    1
    36    14    15   ar
    37    15    10   ar
    38     9     3    1
    39    25    20   ar
    40    32    27    1
    41    37    33    1
@<TRIPOS>MOLECULE
*****
 37 41 0 0 0
SMALL
GASTEIGER

@<TRIPOS>ATOM
      1 C         139.3067  139.0509  165.6738 C.2     1  UNL1        0.2495
      2 O         138.3292  137.9760  166.0466 O.2     1  UNL1       -0.2699
      3 N         139.3406  139.5801  164.2707 N.am    1  UNL1       -0.2660
      4 C         140.3181  140.6550  163.8979 C.3     1  UNL1        0.1160
      5 C         140.3520  141.1842  162.4947 C.3     1  UNL1        0.1197
      6 N         139.4084  140.6384  161.4644 N.am    1  UNL1       -0.2555
      7 C         138.4309  139.5634  161.8372 C.2     1  UNL1        0.2497
      8 O         137.4873  139.0176  160.8068 O.2     1  UNL1       -0.2727
      9 C         138.3970  139.0343  163.2403 C.3     1  UNL1        0.1799
     10 C         140.6954  141.1012  168.7751 C.ar    1  UNL1        0.1059
     11 C         142.1374  140.6883  168.7651 C.ar    1  UNL1        0.0183
     12 C         142.6359  139.7297  167.7246 C.ar    1  UNL1        0.0015
     13 C         141.6923  139.1839  166.6942 C.ar    1  UNL1        0.0046
     14 C         140.2503  139.5967  166.7043 C.ar    1  UNL1        0.0549
     15 C         139.7519  140.5554  167.7447 C.ar    1  UNL1        0.0229
     16 C         139.6985  143.0185  170.8560 C.3     1  UNL1        0.1816
     17 S         140.1970  142.0599  169.8156 S.O2    1  UNL1        0.0105
     18 O         139.8130  140.9065  170.6943 O.2     1  UNL1       -0.1686
     19 O         140.5810  143.2132  168.9368 O.2     1  UNL1       -0.1686
     20 C         139.4423  141.1675  160.0612 C.ar    1  UNL1        0.0541
     21 C         138.5285  142.2871  159.6596 C.ar    1  UNL1        0.0180
     22 C         138.5624  142.8163  158.2564 C.ar    1  UNL1        0.0382
     23 C         139.5102  142.2258  157.2549 C.ar    1  UNL1        0.1385
     24 C         140.4240  141.1061  157.6565 C.ar    1  UNL1        0.0382
     25 C         140.3901  140.5770  159.0597 C.ar    1  UNL1        0.0180
     26 O         139.5441  142.7549  155.8518 O.3     1  UNL1       -0.4791
     27 C         139.4913  144.2338  155.6064 C.3     1  UNL1        0.1687
     28 C         138.1886  144.8900  155.2569 C.3     1  UNL1        0.0609
     29 C         138.1358  146.3689  155.0116 C.3     1  UNL1        0.0758
     30 N         139.3858  147.1915  155.1157 N.3     1  UNL1       -0.2737
     31 C         140.6886  146.5352  155.4652 C.3     1  UNL1        0.0758
     32 C         140.7414  145.0564  155.7105 C.3     1  UNL1        0.0609
     33 C         139.3330  148.6703  154.8703 C.3     1  UNL1        0.0575
     34 C         138.5795  149.6740  155.6919 C.3     1  UNL1        0.0160
     35 C         138.8053  151.0292  155.0896 C.3     1  UNL1        0.0014
     36 C         139.6984  150.8630  153.8959 C.3     1  UNL1        0.0014
     37 C         140.0245  149.4051  153.7604 C.3     1  UNL1        0.0160
@<TRIPOS>BOND
     1    16    17    1
     2    17    18    2
     3    17    19    2
     4    17    10    1
     5    10    11   ar
     6    11    12   ar
     7    12    13   ar
     8    13    14   ar
     9    14     1    1
    10     1     2    2
    11     1     3   am
    12     3     4    1
    13     4     5    1
    14     5     6    1
    15     6    20    1
    16    20    21   ar
    17    21    22   ar
    18    22    23   ar
    19    23    26    1
    20    26    27    1
    21    27    28    1
    22    28    29    1
    23    29    30    1
    24    30    33    1
    25    33    34    1
    26    34    35    1
    27    35    36    1
    28    36    37    1
    29    30    31    1
    30    31    32    1
    31    23    24   ar
    32    24    25   ar
    33     6     7   am
    34     7     8    2
    35     7     9    1
    36    14    15   ar
    37    15    10   ar
    38     9     3    1
    39    25    20   ar
    40    32    27    1
    41    37    33    1
@<TRIPOS>MOLECULE
*****
 37 41 0 0 0
SMALL
GASTEIGER

@<TRIPOS>ATOM
      1 C         139.7067  142.4358  165.0619 C.2     1  UNL1        0.2495
      2 O         139.0737  143.7937  164.9881 O.2     1  UNL1       -0.2699
      3 N         140.0557  141.7015  163.8014 N.am    1  UNL1       -0.2660
      4 C         140.6887  140.3436  163.8752 C.3     1  UNL1        0.1160
      5 C         141.0377  139.6093  162.6146 C.3     1  UNL1        0.1197
      6 N         140.7537  140.2328  161.2803 N.am    1  UNL1       -0.2555
      7 C         140.1207  141.5907  161.2065 C.2     1  UNL1        0.2497
      8 O         139.8367  142.2143  159.8722 O.2     1  UNL1       -0.2727
      9 C         139.7717  142.3251  162.4670 C.3     1  UNL1        0.1799
     10 C         141.1997  141.8699  168.6952 C.ar    1  UNL1        0.1059
     11 C         140.5587  140.5652  169.0650 C.ar    1  UNL1        0.0183
     12 C         139.6336  139.8841  168.1005 C.ar    1  UNL1        0.0015
     13 C         139.3496  140.5076  166.7662 C.ar    1  UNL1        0.0046
     14 C         139.9907  141.8122  166.3963 C.ar    1  UNL1        0.0549
     15 C         140.9157  142.4934  167.3608 C.ar    1  UNL1        0.0229
     16 C         143.0498  143.2322  170.6242 C.3     1  UNL1        0.1816
     17 S         142.1248  142.5511  169.6597 S.O2    1  UNL1        0.0105
     18 O         140.9886  142.7310  170.6223 O.2     1  UNL1       -0.1686
     19 O         143.2610  142.3711  168.6971 O.2     1  UNL1       -0.1686
     20 C         141.1027  139.4985  160.0198 C.ar    1  UNL1        0.0541
     21 C         140.0293  138.8059  159.2336 C.ar    1  UNL1        0.0180
     22 C         140.3784  138.0715  157.9730 C.ar    1  UNL1        0.0382
     23 C         141.8008  138.0299  157.4987 C.ar    1  UNL1        0.1385
     24 C         142.8741  138.7225  158.2849 C.ar    1  UNL1        0.0382
     25 C         142.5251  139.4568  159.5454 C.ar    1  UNL1        0.0180
     26 O         142.1498  137.2955  156.2382 O.3     1  UNL1       -0.4791
     27 C         142.2261  135.7975  156.2395 C.3     1  UNL1        0.1687
     28 C         141.3458  135.0008  155.3229 C.3     1  UNL1        0.0609
     29 C         141.4221  133.5028  155.3242 C.3     1  UNL1        0.0758
     30 N         142.3788  132.8014  156.2422 N.3     1  UNL1       -0.2737
     31 C         143.2592  133.5980  157.1590 C.3     1  UNL1        0.0758
     32 C         143.1829  135.0961  157.1576 C.3     1  UNL1        0.0609
     33 C         142.4552  131.3033  156.2436 C.3     1  UNL1        0.0575
     34 C         143.2818  130.4634  157.1717 C.3     1  UNL1        0.0160
     35 C         143.0558  129.0232  156.8188 C.3     1  UNL1        0.0014
     36 C         142.0895  128.9729  155.6725 C.3     1  UNL1        0.0014
     37 C         141.7183  130.3821  155.3171 C.3     1  UNL1        0.0160
@<TRIPOS>BOND
     1    16    17    1
     2    17    18    2
     3    17    19    2
     4    17    10    1
     5    10    11   ar
     6    11    12   ar
     7    12    13   ar
     8    13    14   ar
     9    14     1    1
    10     1     2    2
    11     1     3   am
    12     3     4    1
    13     4     5    1
    14     5     6    1
    15     6    20    1
    16    20    21   ar
    17    21    22   ar
    18    22    23   ar
    19    23    26    1
    20    26    27    1
    21    27    28    1
    22    28    29    1
    23    29    30    1
    24    30    33    1
    25    33    34    1
    26    34    35    1
    27    35    36    1
    28    36    37    1
    29    30    31    1
    30    31    32    1
    31    23    24   ar
    32    24    25   ar
    33     6     7   am
    34     7     8    2
    35     7     9    1
    36    14    15   ar
    37    15    10   ar
    38     9     3    1
    39    25    20   ar
    40    32    27    1
    41    37    33    1
@<TRIPOS>MOLECULE
*****
 37 41 0 0 0
SMALL
GASTEIGER

@<TRIPOS>ATOM
      1 C         140.8817  143.0888  164.7591 C.2     1  UNL1        0.2495
      2 O         140.3552  144.4905  164.6687 O.2     1  UNL1       -0.2699
      3 N         141.0081  142.2537  163.5195 N.am    1  UNL1       -0.2660
      4 C         141.5345  140.8520  163.6099 C.3     1  UNL1        0.1160
      5 C         141.6609  140.0170  162.3702 C.3     1  UNL1        0.1197
      6 N         141.2610  140.5836  161.0402 N.am    1  UNL1       -0.2555
      7 C         140.7345  141.9852  160.9498 C.2     1  UNL1        0.2497
      8 O         140.3345  142.5518  159.6198 O.2     1  UNL1       -0.2727
      9 C         140.6081  142.8203  162.1894 C.3     1  UNL1        0.1799
     10 C         140.6419  141.3708  168.3285 C.ar    1  UNL1        0.1059
     11 C         142.0815  141.3891  168.7492 C.ar    1  UNL1        0.0183
     12 C         143.1213  141.9739  167.8398 C.ar    1  UNL1        0.0015
     13 C         142.7213  142.5405  166.5098 C.ar    1  UNL1        0.0046
     14 C         141.2817  142.5222  166.0892 C.ar    1  UNL1        0.0549
     15 C         140.2419  141.9374  166.9985 C.ar    1  UNL1        0.0229
     16 C         138.5624  140.2011  170.1473 C.3     1  UNL1        0.1816
     17 S         139.6022  140.7860  169.2379 S.O2    1  UNL1        0.0105
     18 O         139.6543  142.0190  170.0906 O.2     1  UNL1       -0.1686
     19 O         139.5500  139.5530  168.3853 O.2     1  UNL1       -0.1686
     20 C         141.3874  139.7485  159.8007 C.ar    1  UNL1        0.0541
     21 C         142.7026  139.6635  159.0845 C.ar    1  UNL1        0.0180
     22 C         142.8290  138.8284  157.8448 C.ar    1  UNL1        0.0382
     23 C         141.6402  138.0783  157.3214 C.ar    1  UNL1        0.1385
     24 C         140.3250  138.1632  158.0376 C.ar    1  UNL1        0.0382
     25 C         140.1985  138.9983  159.2772 C.ar    1  UNL1        0.0180
     26 O         141.7666  137.2432  156.0818 O.3     1  UNL1       -0.4791
     27 C         142.0275  135.7703  156.1932 C.3     1  UNL1        0.1687
     28 C         143.0322  135.2592  157.1828 C.3     1  UNL1        0.0609
     29 C         143.2931  133.7863  157.2942 C.3     1  UNL1        0.0758
     30 N         142.5493  132.8244  156.4158 N.3     1  UNL1       -0.2737
     31 C         141.5446  133.3354  155.4261 C.3     1  UNL1        0.0758
     32 C         141.2837  134.8084  155.3147 C.3     1  UNL1        0.0609
     33 C         142.8102  131.3515  156.5271 C.3     1  UNL1        0.0575
     34 C         142.0936  130.2697  155.7744 C.3     1  UNL1        0.0160
     35 C         142.6741  128.9514  156.1928 C.3     1  UNL1        0.0014
     36 C         143.7493  129.2182  157.2041 C.3     1  UNL1        0.0014
     37 C         143.8334  130.7016  157.4107 C.3     1  UNL1        0.0160
@<TRIPOS>BOND
     1    16    17    1
     2    17    18    2
     3    17    19    2
     4    17    10    1
     5    10    11   ar
     6    11    12   ar
     7    12    13   ar
     8    13    14   ar
     9    14     1    1
    10     1     2    2
    11     1     3   am
    12     3     4    1
    13     4     5    1
    14     5     6    1
    15     6    20    1
    16    20    21   ar
    17    21    22   ar
    18    22    23   ar
    19    23    26    1
    20    26    27    1
    21    27    28    1
    22    28    29    1
    23    29    30    1
    24    30    33    1
    25    33    34    1
    26    34    35    1
    27    35    36    1
    28    36    37    1
    29    30    31    1
    30    31    32    1
    31    23    24   ar
    32    24    25   ar
    33     6     7   am
    34     7     8    2
    35     7     9    1
    36    14    15   ar
    37    15    10   ar
    38     9     3    1
    39    25    20   ar
    40    32    27    1
    41    37    33    1
@<TRIPOS>MOLECULE
*****
 37 41 0 0 0
SMALL
GASTEIGER

@<TRIPOS>ATOM
      1 C         142.5702  136.7952  154.9411 C.2     1  UNL1        0.2495
      2 O         142.5977  137.2764  153.5206 O.2     1  UNL1       -0.2699
      3 N         142.6227  137.7830  156.0687 N.am    1  UNL1       -0.2660
      4 C         142.5953  137.3018  157.4891 C.3     1  UNL1        0.1160
      5 C         142.6478  138.2896  158.6168 C.3     1  UNL1        0.1197
      6 N         142.7277  139.7585  158.3239 N.am    1  UNL1       -0.2555
      7 C         142.7551  140.2397  156.9035 C.2     1  UNL1        0.2497
      8 O         142.8351  141.7087  156.6106 O.2     1  UNL1       -0.2727
      9 C         142.7027  139.2520  155.7759 C.3     1  UNL1        0.1799
     10 C         143.4729  133.1990  156.3560 C.ar    1  UNL1        0.1059
     11 C         142.3306  132.3883  155.8195 C.ar    1  UNL1        0.0183
     12 C         141.2681  133.0466  154.9902 C.ar    1  UNL1        0.0015
     13 C         141.3480  134.5156  154.6973 C.ar    1  UNL1        0.0046
     14 C         142.4903  135.3262  155.2339 C.ar    1  UNL1        0.0549
     15 C         143.5528  134.6679  156.0632 C.ar    1  UNL1        0.0229
     16 C         145.5978  131.8824  158.0148 C.3     1  UNL1        0.1816
     17 S         144.5354  132.5407  157.1854 S.O2    1  UNL1        0.0105
     18 O         144.2989  133.5384  158.2802 O.2     1  UNL1       -0.1686
     19 O         144.7718  131.5429  156.0906 O.2     1  UNL1       -0.1686
     20 C         142.7802  140.7463  159.4516 C.ar    1  UNL1        0.0541
     21 C         141.5122  141.3464  159.9826 C.ar    1  UNL1        0.0180
     22 C         141.5648  142.3342  161.1103 C.ar    1  UNL1        0.0382
     23 C         142.8853  142.7218  161.7069 C.ar    1  UNL1        0.1385
     24 C         144.1533  142.1217  161.1758 C.ar    1  UNL1        0.0382
     25 C         144.1008  141.1339  160.0482 C.ar    1  UNL1        0.0180
     26 O         142.9378  143.7095  162.8345 O.3     1  UNL1       -0.4791
     27 C         142.3426  143.3598  164.1662 C.3     1  UNL1        0.1687
     28 C         143.1809  142.6778  165.2065 C.3     1  UNL1        0.0609
     29 C         142.5857  142.3281  166.5382 C.3     1  UNL1        0.0758
     30 N         141.1524  142.6604  166.8297 N.3     1  UNL1       -0.2737
     31 C         140.3140  143.3424  165.7894 C.3     1  UNL1        0.0758
     32 C         140.9092  143.6921  164.4577 C.3     1  UNL1        0.0609
     33 C         140.5572  142.3106  168.1614 C.3     1  UNL1        0.0575
     34 C         140.4078  143.2377  169.3312 C.3     1  UNL1        0.0160
     35 C         139.7652  142.4724  170.4499 C.3     1  UNL1        0.0014
     36 C         139.5176  141.0725  169.9716 C.3     1  UNL1        0.0014
     37 C         140.0071  140.9725  168.5572 C.3     1  UNL1        0.0160
@<TRIPOS>BOND
     1    16    17    1
     2    17    18    2
     3    17    19    2
     4    17    10    1
     5    10    11   ar
     6    11    12   ar
     7    12    13   ar
     8    13    14   ar
     9    14     1    1
    10     1     2    2
    11     1     3   am
    12     3     4    1
    13     4     5    1
    14     5     6    1
    15     6    20    1
    16    20    21   ar
    17    21    22   ar
    18    22    23   ar
    19    23    26    1
    20    26    27    1
    21    27    28    1
    22    28    29    1
    23    29    30    1
    24    30    33    1
    25    33    34    1
    26    34    35    1
    27    35    36    1
    28    36    37    1
    29    30    31    1
    30    31    32    1
    31    23    24   ar
    32    24    25   ar
    33     6     7   am
    34     7     8    2
    35     7     9    1
    36    14    15   ar
    37    15    10   ar
    38     9     3    1
    39    25    20   ar
    40    32    27    1
    41    37    33    1
@<TRIPOS>MOLECULE
*****
 37 41 0 0 0
SMALL
GASTEIGER

@<TRIPOS>ATOM
      1 C         138.7596  138.8489  154.5954 C.2     1  UNL1        0.2495
      2 O         139.0396  137.8306  153.5302 O.2     1  UNL1       -0.2699
      3 N         139.5455  138.8334  155.8729 N.am    1  UNL1       -0.2660
      4 C         139.2654  139.8517  156.9382 C.3     1  UNL1        0.1160
      5 C         140.0514  139.8362  158.2157 C.3     1  UNL1        0.1197
      6 N         141.1173  138.8024  158.4280 N.am    1  UNL1       -0.2555
      7 C         141.3974  137.7842  157.3628 C.2     1  UNL1        0.2497
      8 O         142.4633  136.7504  157.5751 O.2     1  UNL1       -0.2727
      9 C         140.6115  137.7996  156.0853 C.3     1  UNL1        0.1799
     10 C         135.2953  140.7690  154.8440 C.ar    1  UNL1        0.1059
     11 C         135.5616  141.9501  153.9585 C.ar    1  UNL1        0.0183
     12 C         136.8940  142.0974  153.2853 C.ar    1  UNL1        0.0015
     13 C         137.9599  141.0637  153.4976 C.ar    1  UNL1        0.0046
     14 C         137.6936  139.8827  154.3831 C.ar    1  UNL1        0.0549
     15 C         136.3613  139.7353  155.0563 C.ar    1  UNL1        0.0229
     16 C         132.6306  140.4743  156.1904 C.3     1  UNL1        0.1816
     17 S         133.9630  140.6217  155.5172 S.O2    1  UNL1        0.0105
     18 O         134.6224  139.9235  156.6695 O.2     1  UNL1       -0.1686
     19 O         133.3035  141.3198  154.3649 O.2     1  UNL1       -0.1686
     20 C         141.9032  138.7869  159.7055 C.ar    1  UNL1        0.0541
     21 C         141.3069  138.1901  160.9457 C.ar    1  UNL1        0.0180
     22 C         142.0929  138.1746  162.2233 C.ar    1  UNL1        0.0382
     23 C         143.4751  138.7560  162.2606 C.ar    1  UNL1        0.1385
     24 C         144.0714  139.3529  161.0204 C.ar    1  UNL1        0.0382
     25 C         143.2855  139.3683  159.7429 C.ar    1  UNL1        0.0180
     26 O         144.2610  138.7405  163.5381 O.3     1  UNL1       -0.4791
     27 C         143.8002  139.5527  164.7120 C.3     1  UNL1        0.1687
     28 C         143.8688  141.0502  164.6613 C.3     1  UNL1        0.0609
     29 C         143.4080  141.8623  165.8352 C.3     1  UNL1        0.0758
     30 N         142.8786  141.1769  167.0599 N.3     1  UNL1       -0.2737
     31 C         142.8100  139.6793  167.1107 C.3     1  UNL1        0.0758
     32 C         143.2708  138.8672  165.9368 C.3     1  UNL1        0.0609
     33 C         142.4178  141.9890  168.2338 C.3     1  UNL1        0.0575
     34 C         143.2400  142.3450  169.4369 C.3     1  UNL1        0.0160
     35 C         142.3842  143.1637  170.3574 C.3     1  UNL1        0.0014
     36 C         141.0332  143.3138  169.7233 C.3     1  UNL1        0.0014
     37 C         141.0539  142.5878  168.4108 C.3     1  UNL1        0.0160
@<TRIPOS>BOND
     1    16    17    1
     2    17    18    2
     3    17    19    2
     4    17    10    1
     5    10    11   ar
     6    11    12   ar
     7    12    13   ar
     8    13    14   ar
     9    14     1    1
    10     1     2    2
    11     1     3   am
    12     3     4    1
    13     4     5    1
    14     5     6    1
    15     6    20    1
    16    20    21   ar
    17    21    22   ar
    18    22    23   ar
    19    23    26    1
    20    26    27    1
    21    27    28    1
    22    28    29    1
    23    29    30    1
    24    30    33    1
    25    33    34    1
    26    34    35    1
    27    35    36    1
    28    36    37    1
    29    30    31    1
    30    31    32    1
    31    23    24   ar
    32    24    25   ar
    33     6     7   am
    34     7     8    2
    35     7     9    1
    36    14    15   ar
    37    15    10   ar
    38     9     3    1
    39    25    20   ar
    40    32    27    1
    41    37    33    1
@<TRIPOS>MOLECULE
*****
 37 41 0 0 0
SMALL
GASTEIGER

@<TRIPOS>ATOM
      1 C         138.5321  141.5198  163.6927 C.2     1  UNL1        0.2495
      2 O         137.6975  142.7577  163.5477 O.2     1  UNL1       -0.2699
      3 N         139.0901  140.8446  162.4751 N.am    1  UNL1       -0.2660
      4 C         139.9247  139.6067  162.6201 C.3     1  UNL1        0.1160
      5 C         140.4827  138.9315  161.4023 C.3     1  UNL1        0.1197
      6 N         140.2061  139.4942  160.0397 N.am    1  UNL1       -0.2555
      7 C         139.3715  140.7320  159.8947 C.2     1  UNL1        0.2497
      8 O         139.0948  141.2947  158.5321 O.2     1  UNL1       -0.2727
      9 C         138.8135  141.4073  161.1123 C.3     1  UNL1        0.1799
     10 C         140.0479  141.0893  167.3351 C.ar    1  UNL1        0.1059
     11 C         139.3621  139.8320  167.7808 C.ar    1  UNL1        0.0183
     12 C         138.3995  139.1372  166.8638 C.ar    1  UNL1        0.0015
     13 C         138.1229  139.6998  165.5011 C.ar    1  UNL1        0.0046
     14 C         138.8088  140.9571  165.0554 C.ar    1  UNL1        0.0549
     15 C         139.7713  141.6519  165.9725 C.ar    1  UNL1        0.0229
     16 C         141.9730  142.4787  169.1691 C.3     1  UNL1        0.1816
     17 S         141.0105  141.7840  168.2521 S.O2    1  UNL1        0.0105
     18 O         140.4098  143.1072  167.8802 O.2     1  UNL1       -0.1686
     19 O         141.6111  140.4608  168.6241 O.2     1  UNL1       -0.1686
     20 C         140.7641  138.8189  158.8221 C.ar    1  UNL1        0.0541
     21 C         142.2220  138.9490  158.4941 C.ar    1  UNL1        0.0180
     22 C         142.7800  138.2737  157.2764 C.ar    1  UNL1        0.0382
     23 C         141.8800  137.4685  156.3867 C.ar    1  UNL1        0.1385
     24 C         140.4221  137.3384  156.7147 C.ar    1  UNL1        0.0382
     25 C         139.8641  138.0136  157.9323 C.ar    1  UNL1        0.0180
     26 O         142.4380  136.7932  155.1691 O.3     1  UNL1       -0.4791
     27 C         142.8519  135.3529  155.2335 C.3     1  UNL1        0.1687
     28 C         142.4547  134.4087  154.1378 C.3     1  UNL1        0.0609
     29 C         142.8686  132.9684  154.2022 C.3     1  UNL1        0.0758
     30 N         143.6796  132.4722  155.3624 N.3     1  UNL1       -0.2737
     31 C         144.0768  133.4165  156.4582 C.3     1  UNL1        0.0758
     32 C         143.6629  134.8568  156.3938 C.3     1  UNL1        0.0609
     33 C         144.0935  131.0319  155.4269 C.3     1  UNL1        0.0575
     34 C         144.3881  130.1458  154.2529 C.3     1  UNL1        0.0160
     35 C         144.7621  128.7910  154.7771 C.3     1  UNL1        0.0014
     36 C         144.6986  128.8398  156.2750 C.3     1  UNL1        0.0014
     37 C         144.2854  130.2247  156.6765 C.3     1  UNL1        0.0160
@<TRIPOS>BOND
     1    16    17    1
     2    17    18    2
     3    17    19    2
     4    17    10    1
     5    10    11   ar
     6    11    12   ar
     7    12    13   ar
     8    13    14   ar
     9    14     1    1
    10     1     2    2
    11     1     3   am
    12     3     4    1
    13     4     5    1
    14     5     6    1
    15     6    20    1
    16    20    21   ar
    17    21    22   ar
    18    22    23   ar
    19    23    26    1
    20    26    27    1
    21    27    28    1
    22    28    29    1
    23    29    30    1
    24    30    33    1
    25    33    34    1
    26    34    35    1
    27    35    36    1
    28    36    37    1
    29    30    31    1
    30    31    32    1
    31    23    24   ar
    32    24    25   ar
    33     6     7   am
    34     7     8    2
    35     7     9    1
    36    14    15   ar
    37    15    10   ar
    38     9     3    1
    39    25    20   ar
    40    32    27    1
    41    37    33    1
@<TRIPOS>MOLECULE
*****
 37 41 0 0 0
SMALL
GASTEIGER

@<TRIPOS>ATOM
      1 C         142.6678  139.4901  165.7084 C.2     1  UNL1        0.2495
      2 O         143.4690  138.2370  165.9027 O.2     1  UNL1       -0.2699
      3 N         142.2786  139.9248  164.3265 N.am    1  UNL1       -0.2660
      4 C         141.4775  141.1779  164.1322 C.3     1  UNL1        0.1160
      5 C         141.0883  141.6125  162.7502 C.3     1  UNL1        0.1197
      6 N         141.5002  140.7940  161.5627 N.am    1  UNL1       -0.2555
      7 C         142.3014  139.5409  161.7570 C.2     1  UNL1        0.2497
      8 O         142.7133  138.7223  160.5695 O.2     1  UNL1       -0.2727
      9 C         142.6906  139.1062  163.1389 C.3     1  UNL1        0.1799
     10 C         140.5930  140.7810  168.8355 C.ar    1  UNL1        0.1059
     11 C         141.4320  141.9456  169.2711 C.ar    1  UNL1        0.0183
     12 C         142.6829  142.2917  168.5192 C.ar    1  UNL1        0.0015
     13 C         143.0948  141.4733  167.3316 C.ar    1  UNL1        0.0046
     14 C         142.2559  140.3087  166.8960 C.ar    1  UNL1        0.0549
     15 C         141.0050  139.9625  167.6480 C.ar    1  UNL1        0.0229
     16 C         138.0913  140.0886  170.3394 C.3     1  UNL1        0.1816
     17 S         139.3422  140.4348  169.5875 S.O2    1  UNL1        0.0105
     18 O         138.9326  139.5095  168.4802 O.2     1  UNL1       -0.1686
     19 O         139.7517  141.3601  170.6947 O.2     1  UNL1       -0.1686
     20 C         141.1110  141.2286  160.1809 C.ar    1  UNL1        0.0541
     21 C         139.7267  140.9567  159.6711 C.ar    1  UNL1        0.0180
     22 C         139.3375  141.3914  158.2892 C.ar    1  UNL1        0.0382
     23 C         140.3326  142.0979  157.4171 C.ar    1  UNL1        0.1385
     24 C         141.7168  142.3699  157.9268 C.ar    1  UNL1        0.0382
     25 C         142.1061  141.9353  159.3087 C.ar    1  UNL1        0.0180
     26 O         139.9434  142.5326  156.0352 O.3     1  UNL1       -0.4791
     27 C         139.8079  143.9925  155.7184 C.3     1  UNL1        0.1687
     28 C         141.0332  144.8457  155.5749 C.3     1  UNL1        0.0609
     29 C         140.8977  146.3055  155.2581 C.3     1  UNL1        0.0758
     30 N         139.5369  146.9123  155.0849 N.3     1  UNL1       -0.2737
     31 C         138.3114  146.0591  155.2285 C.3     1  UNL1        0.0758
     32 C         138.4470  144.5992  155.5453 C.3     1  UNL1        0.0609
     33 C         139.4013  148.3722  154.7681 C.3     1  UNL1        0.0575
     34 C         139.8917  149.0539  153.5251 C.3     1  UNL1        0.0160
     35 C         139.5451  150.5097  153.6276 C.3     1  UNL1        0.0014
     36 C         138.8405  150.7277  154.9337 C.3     1  UNL1        0.0014
     37 C         138.7517  149.4067  155.6386 C.3     1  UNL1        0.0160
@<TRIPOS>BOND
     1    16    17    1
     2    17    18    2
     3    17    19    2
     4    17    10    1
     5    10    11   ar
     6    11    12   ar
     7    12    13   ar
     8    13    14   ar
     9    14     1    1
    10     1     2    2
    11     1     3   am
    12     3     4    1
    13     4     5    1
    14     5     6    1
    15     6    20    1
    16    20    21   ar
    17    21    22   ar
    18    22    23   ar
    19    23    26    1
    20    26    27    1
    21    27    28    1
    22    28    29    1
    23    29    30    1
    24    30    33    1
    25    33    34    1
    26    34    35    1
    27    35    36    1
    28    36    37    1
    29    30    31    1
    30    31    32    1
    31    23    24   ar
    32    24    25   ar
    33     6     7   am
    34     7     8    2
    35     7     9    1
    36    14    15   ar
    37    15    10   ar
    38     9     3    1
    39    25    20   ar
    40    32    27    1
    41    37    33    1
@<TRIPOS>MOLECULE
*****
 37 41 0 0 0
SMALL
GASTEIGER

@<TRIPOS>ATOM
      1 C         140.1606  138.3967  164.1434 C.2     1  UNL1        0.2495
      2 O         138.8498  137.6822  164.2889 O.2     1  UNL1       -0.2699
      3 N         140.6883  138.7252  162.7783 N.am    1  UNL1       -0.2660
      4 C         141.9991  139.4397  162.6328 C.3     1  UNL1        0.1160
      5 C         142.5268  139.7682  161.2676 C.3     1  UNL1        0.1197
      6 N         141.7436  139.3821  160.0479 N.am    1  UNL1       -0.2555
      7 C         140.4328  138.6676  160.1934 C.2     1  UNL1        0.2497
      8 O         139.6496  138.2815  158.9737 O.2     1  UNL1       -0.2727
      9 C         139.9051  138.3391  161.5585 C.3     1  UNL1        0.1799
     10 C         141.0665  139.9453  167.6833 C.ar    1  UNL1        0.1059
     11 C         142.5099  139.5549  167.8025 C.ar    1  UNL1        0.0183
     12 C         143.1702  138.7785  166.7020 C.ar    1  UNL1        0.0015
     13 C         142.3871  138.3924  165.4823 C.ar    1  UNL1        0.0046
     14 C         140.9438  138.7828  165.3631 C.ar    1  UNL1        0.0549
     15 C         140.2835  139.5592  166.4636 C.ar    1  UNL1        0.0229
     16 C         139.7460  141.4981  169.8844 C.3     1  UNL1        0.1816
     17 S         140.4062  140.7217  168.7839 S.O2    1  UNL1        0.0105
     18 O         141.5788  141.6561  168.8281 O.2     1  UNL1       -0.1686
     19 O         139.2337  139.7872  168.7396 O.2     1  UNL1       -0.1686
     20 C         142.2713  139.7106  158.6828 C.ar    1  UNL1        0.0541
     21 C         142.1591  141.1089  158.1518 C.ar    1  UNL1        0.0180
     22 C         142.6869  141.4374  156.7866 C.ar    1  UNL1        0.0382
     23 C         143.3267  140.3675  155.9525 C.ar    1  UNL1        0.1385
     24 C         143.4389  138.9691  156.4835 C.ar    1  UNL1        0.0382
     25 C         142.9112  138.6406  157.8486 C.ar    1  UNL1        0.0180
     26 O         143.8544  140.6959  154.5873 O.3     1  UNL1       -0.4791
     27 C         145.2795  141.1328  154.4192 C.3     1  UNL1        0.1687
     28 C         145.8381  141.3570  153.0453 C.3     1  UNL1        0.0609
     29 C         147.2632  141.7939  152.8772 C.3     1  UNL1        0.0758
     30 N         148.1297  142.0067  154.0830 N.3     1  UNL1       -0.2737
     31 C         147.5710  141.7825  155.4570 C.3     1  UNL1        0.0758
     32 C         146.1460  141.3456  155.6251 C.3     1  UNL1        0.0609
     33 C         149.5547  142.4436  153.9149 C.3     1  UNL1        0.0575
     34 C         150.7476  141.8422  154.5972 C.3     1  UNL1        0.0160
     35 C         151.9673  142.5856  154.1389 C.3     1  UNL1        0.0014
     36 C         151.5282  143.6462  153.1734 C.3     1  UNL1        0.0014
     37 C         150.0372  143.5585  153.0350 C.3     1  UNL1        0.0160
@<TRIPOS>BOND
     1    16    17    1
     2    17    18    2
     3    17    19    2
     4    17    10    1
     5    10    11   ar
     6    11    12   ar
     7    12    13   ar
     8    13    14   ar
     9    14     1    1
    10     1     2    2
    11     1     3   am
    12     3     4    1
    13     4     5    1
    14     5     6    1
    15     6    20    1
    16    20    21   ar
    17    21    22   ar
    18    22    23   ar
    19    23    26    1
    20    26    27    1
    21    27    28    1
    22    28    29    1
    23    29    30    1
    24    30    33    1
    25    33    34    1
    26    34    35    1
    27    35    36    1
    28    36    37    1
    29    30    31    1
    30    31    32    1
    31    23    24   ar
    32    24    25   ar
    33     6     7   am
    34     7     8    2
    35     7     9    1
    36    14    15   ar
    37    15    10   ar
    38     9     3    1
    39    25    20   ar
    40    32    27    1
    41    37    33    1
