@<TRIPOS>MOLECULE
*****
 47 52 0 0 0
SMALL
GASTEIGER

@<TRIPOS>ATOM
      1 C         137.7788  144.3942  163.2711 C.3     1  UNL1        0.0320
      2 C         137.8130  142.9578  162.8404 C.3     1  UNL1        0.0932
      3 C         138.0417  142.6123  161.3988 C.3     1  UNL1        0.0286
      4 C         138.0759  141.1759  160.9681 C.3     1  UNL1        0.0193
      5 C         137.8813  140.0849  161.9791 C.3     1  UNL1        0.0700
      6 C         137.6526  140.4305  163.4207 C.3     1  UNL1        0.0193
      7 C         137.6184  141.8670  163.8514 C.3     1  UNL1        0.0286
      8 C         137.8543  140.8575  162.2627 C.3     1  UNL1        0.1562
      9 O         137.8234  142.1563  162.6521 O.3     1  UNL1       -0.3572
     10 N         137.9155  138.6485  161.5484 N.3     1  UNL1       -0.2926
     11 H         137.3182  138.5737  160.7250 H       1  UNL1        0.1236
     12 C         139.2223  138.0022  161.1957 C.3     1  UNL1        0.1152
     13 C         140.4196  138.2013  162.0771 C.ar    1  UNL1        0.0765
     14 C         140.5744  137.3869  163.3272 C.ar    1  UNL1        0.0193
     15 C         141.7717  137.5861  164.2086 C.ar    1  UNL1        0.0411
     16 C         142.8141  138.5997  163.8399 C.ar    1  UNL1        0.1708
     17 C         142.6593  139.4141  162.5898 C.ar    1  UNL1        0.1682
     18 N         141.4620  139.2149  161.7084 N.ar    1  UNL1       -0.2304
     19 N         143.7018  140.4277  162.2211 N.am    1  UNL1       -0.2639
     20 C         144.8990  140.6269  163.1025 C.2     1  UNL1        0.2718
     21 O         145.9415  141.6404  162.7338 O.2     1  UNL1       -0.2707
     22 C         145.0539  139.8124  164.3526 C.3     1  UNL1        0.2898
     23 O         144.0114  138.7988  164.7213 O.3     1  UNL1       -0.4628
     24 H         143.6001  140.9622  161.4006 H       1  UNL1        0.1565
     25 C         138.8896  144.9522  164.1107 C.3     1  UNL1        0.0327
     26 C         140.9202  142.3284  167.1509 C.ar    1  UNL1        0.2249
     27 C         142.3317  141.8736  166.9256 C.ar    1  UNL1        0.0593
     28 C         143.0663  142.2933  165.6870 C.ar    1  UNL1        0.0254
     29 C         142.3895  143.1679  164.6737 C.ar    1  UNL1        0.0990
     30 N         143.1241  143.5876  163.4351 N.ar    1  UNL1       -0.2400
     31 C         142.4473  144.4622  162.4217 C.ar    1  UNL1        0.1281
     32 C         141.0357  144.9171  162.6469 C.ar    1  UNL1        0.1566
     33 F         140.3589  145.7916  161.6335 F       1  UNL1       -0.2028
     34 C         140.3011  144.4973  163.8855 C.ar    1  UNL1        0.0261
     35 C         140.9780  143.6227  164.8989 C.ar    1  UNL1        0.1002
     36 N         140.2433  143.2030  166.1375 N.ar    1  UNL1       -0.2104
     37 O         140.1855  141.9087  168.3894 O.3     1  UNL1       -0.4600
     38 C         140.3616  142.6802  169.6637 C.3     1  UNL1        0.2133
     39 C         141.5829  142.4656  170.5077 C.3     1  UNL1        0.1232
     40 C         142.3076  141.1532  170.4584 C.3     1  UNL1        0.3336
     41 F         143.5470  141.8552  169.9883 F       1  UNL1       -0.1945
     42 F         141.0682  140.4511  170.9284 F       1  UNL1       -0.1945
     43 N         143.9874  139.4698  171.5045 N.am    1  UNL1       -0.3244
     44 C         143.0322  139.8408  170.4090 C.2     1  UNL1        0.2808
     45 O         142.8018  138.8994  169.2642 O.2     1  UNL1       -0.2695
     46 H         144.4631  138.6084  171.4721 H       1  UNL1        0.1451
     47 H         144.1387  140.0877  172.2559 H       1  UNL1        0.1451
@<TRIPOS>BOND
     1    43    44   am
     2    44    45    2
     3    44    40    1
     4    40    41    1
     5    40    42    1
     6    40    39    1
     7    39    38    1
     8    38    37    1
     9    37    26    1
    10    26    27   ar
    11    27    28   ar
    12    28    29   ar
    13    29    30   ar
    14    30    31   ar
    15    31    32   ar
    16    32    33    1
    17    32    34   ar
    18    34    25    1
    19    25     1    1
    20     1     2    1
    21     2     3    1
    22     3     4    1
    23     4     5    1
    24     5    10    1
    25    10    12    1
    26    12    13    1
    27    13    14   ar
    28    14    15   ar
    29    15    16   ar
    30    16    17   ar
    31    17    18   ar
    32    17    19    1
    33    19    20   am
    34    20    21    2
    35    20    22    1
    36    22    23    1
    37     5     6    1
    38     6     7    1
    39     5     8    1
    40     8     9    1
    41    34    35   ar
    42    35    36   ar
    43    36    26   ar
    44    35    29   ar
    45     7     2    1
    46     9     2    1
    47    18    13   ar
    48    23    16    1
    49    43    46    1
    50    43    47    1
    51    10    11    1
    52    19    24    1
@<TRIPOS>MOLECULE
*****
 47 52 0 0 0
SMALL
GASTEIGER

@<TRIPOS>ATOM
      1 C         140.8140  137.3126  164.3968 C.3     1  UNL1        0.0320
      2 C         142.0165  138.1380  164.0465 C.3     1  UNL1        0.0932
      3 C         142.9130  138.6555  165.1321 C.3     1  UNL1        0.0286
      4 C         144.1155  139.4809  164.7819 C.3     1  UNL1        0.0193
      5 C         144.4215  139.7889  163.3460 C.3     1  UNL1        0.0700
      6 C         143.5249  139.2714  162.2605 C.3     1  UNL1        0.0193
      7 C         142.3224  138.4459  162.6108 C.3     1  UNL1        0.0286
      8 C         143.7512  139.3326  163.4890 C.3     1  UNL1        0.1562
      9 O         142.6639  138.5862  163.8056 O.3     1  UNL1       -0.3572
     10 N         145.6239  140.6144  162.9958 N.3     1  UNL1       -0.2926
     11 H         145.7033  140.6023  161.9789 H       1  UNL1        0.1236
     12 C         145.6960  142.0517  163.4187 C.3     1  UNL1        0.1152
     13 C         144.5009  142.9429  163.2536 C.ar    1  UNL1        0.0765
     14 C         143.8985  143.6190  164.4496 C.ar    1  UNL1        0.0193
     15 C         142.7034  144.5103  164.2845 C.ar    1  UNL1        0.0411
     16 C         142.1106  144.7255  162.9235 C.ar    1  UNL1        0.1708
     17 C         142.7129  144.0495  161.7276 C.ar    1  UNL1        0.1682
     18 N         143.9081  143.1581  161.8927 N.ar    1  UNL1       -0.2304
     19 N         142.1200  144.2647  160.3667 N.am    1  UNL1       -0.2639
     20 C         140.9249  145.1559  160.2016 C.2     1  UNL1        0.2718
     21 O         140.3321  145.3711  158.8406 O.2     1  UNL1       -0.2707
     22 C         140.3225  145.8320  161.3975 C.3     1  UNL1        0.2898
     23 O         140.9154  145.6168  162.7585 O.3     1  UNL1       -0.4628
     24 H         142.5154  143.8210  159.5818 H       1  UNL1        0.1565
     25 C         139.5506  137.9824  164.8499 C.3     1  UNL1        0.0327
     26 C         140.2159  142.1917  166.2951 C.ar    1  UNL1        0.2249
     27 C         139.6599  143.3481  165.5182 C.ar    1  UNL1        0.0593
     28 C         138.8821  143.1013  164.2596 C.ar    1  UNL1        0.0254
     29 C         138.6603  141.6983  163.7779 C.ar    1  UNL1        0.0990
     30 N         137.8825  141.4515  162.5192 N.ar    1  UNL1       -0.2400
     31 C         137.6607  140.0485  162.0375 C.ar    1  UNL1        0.1281
     32 C         138.2168  138.8920  162.8144 C.ar    1  UNL1        0.1566
     33 F         137.9950  137.4889  162.3326 F       1  UNL1       -0.2028
     34 C         138.9946  139.1387  164.0730 C.ar    1  UNL1        0.0261
     35 C         139.2163  140.5419  164.5547 C.ar    1  UNL1        0.1002
     36 N         139.9942  140.7886  165.8134 N.ar    1  UNL1       -0.2104
     37 O         140.9938  142.4384  167.5537 O.3     1  UNL1       -0.4600
     38 C         142.3744  141.8720  167.7054 C.3     1  UNL1        0.2133
     39 C         142.7682  141.1874  168.9806 C.3     1  UNL1        0.1232
     40 C         141.7668  141.0264  170.0857 C.3     1  UNL1        0.3336
     41 F         141.4817  139.6281  169.6237 F       1  UNL1       -0.1945
     42 F         142.0518  142.4247  170.5478 F       1  UNL1       -0.1945
     43 N         139.9893  139.5881  171.3196 N.am    1  UNL1       -0.3244
     44 C         140.7653  140.8654  171.1908 C.2     1  UNL1        0.2808
     45 O         140.5398  141.9817  172.1671 O.2     1  UNL1       -0.2695
     46 H         139.3321  139.4825  172.0449 H       1  UNL1        0.1451
     47 H         140.1374  138.8555  170.6788 H       1  UNL1        0.1451
@<TRIPOS>BOND
     1    43    44   am
     2    44    45    2
     3    44    40    1
     4    40    41    1
     5    40    42    1
     6    40    39    1
     7    39    38    1
     8    38    37    1
     9    37    26    1
    10    26    27   ar
    11    27    28   ar
    12    28    29   ar
    13    29    30   ar
    14    30    31   ar
    15    31    32   ar
    16    32    33    1
    17    32    34   ar
    18    34    25    1
    19    25     1    1
    20     1     2    1
    21     2     3    1
    22     3     4    1
    23     4     5    1
    24     5    10    1
    25    10    12    1
    26    12    13    1
    27    13    14   ar
    28    14    15   ar
    29    15    16   ar
    30    16    17   ar
    31    17    18   ar
    32    17    19    1
    33    19    20   am
    34    20    21    2
    35    20    22    1
    36    22    23    1
    37     5     6    1
    38     6     7    1
    39     5     8    1
    40     8     9    1
    41    34    35   ar
    42    35    36   ar
    43    36    26   ar
    44    35    29   ar
    45     7     2    1
    46     9     2    1
    47    18    13   ar
    48    23    16    1
    49    43    46    1
    50    43    47    1
    51    10    11    1
    52    19    24    1
@<TRIPOS>MOLECULE
*****
 47 52 0 0 0
SMALL
GASTEIGER

@<TRIPOS>ATOM
      1 C         140.5327  137.2465  163.6894 C.3     1  UNL1        0.0320
      2 C         141.7600  138.0819  163.4756 C.3     1  UNL1        0.0932
      3 C         142.1291  138.5325  162.0933 C.3     1  UNL1        0.0286
      4 C         143.3565  139.3678  161.8795 C.3     1  UNL1        0.0193
      5 C         144.2148  139.7526  163.0480 C.3     1  UNL1        0.0700
      6 C         143.8457  139.3021  164.4303 C.3     1  UNL1        0.0193
      7 C         142.6182  138.4667  164.6441 C.3     1  UNL1        0.0286
      8 C         143.5518  139.2937  163.2147 C.3     1  UNL1        0.1562
      9 O         142.4420  138.5383  163.4080 O.3     1  UNL1       -0.3572
     10 N         145.4421  140.5880  162.8342 N.3     1  UNL1       -0.2926
     11 H         145.5997  140.6274  161.8272 H       1  UNL1        0.1236
     12 C         145.4839  142.0014  163.3347 C.3     1  UNL1        0.1152
     13 C         144.2826  142.8867  163.1828 C.ar    1  UNL1        0.0765
     14 C         143.6052  143.4467  164.3984 C.ar    1  UNL1        0.0193
     15 C         142.4038  144.3319  164.2466 C.ar    1  UNL1        0.0411
     16 C         141.8799  144.6572  162.8792 C.ar    1  UNL1        0.1708
     17 C         142.5572  144.0972  161.6637 C.ar    1  UNL1        0.1682
     18 N         143.7586  143.2119  161.8155 N.ar    1  UNL1       -0.2304
     19 N         142.0332  144.4225  160.2963 N.am    1  UNL1       -0.2639
     20 C         140.8319  145.3077  160.1445 C.2     1  UNL1        0.2718
     21 O         140.3079  145.6329  158.7771 O.2     1  UNL1       -0.2707
     22 C         140.1545  145.8677  161.3601 C.3     1  UNL1        0.2898
     23 O         140.6785  145.5425  162.7274 O.3     1  UNL1       -0.4628
     24 H         142.4778  144.0549  159.4985 H       1  UNL1        0.1565
     25 C         139.2688  137.8838  164.1861 C.3     1  UNL1        0.0327
     26 C         139.8091  141.9100  166.1220 C.ar    1  UNL1        0.2249
     27 C         139.2768  143.1419  165.4519 C.ar    1  UNL1        0.0593
     28 C         138.5644  143.0317  164.1365 C.ar    1  UNL1        0.0254
     29 C         138.3842  141.6897  163.4912 C.ar    1  UNL1        0.0990
     30 N         137.6718  141.5795  162.1758 N.ar    1  UNL1       -0.2400
     31 C         137.4917  140.2375  161.5305 C.ar    1  UNL1        0.1281
     32 C         138.0240  139.0055  162.2006 C.ar    1  UNL1        0.1566
     33 F         137.8439  137.6635  161.5553 F       1  UNL1       -0.2028
     34 C         138.7365  139.1157  163.5160 C.ar    1  UNL1        0.0261
     35 C         138.9166  140.4578  164.1613 C.ar    1  UNL1        0.1002
     36 N         139.6290  140.5680  165.4767 N.ar    1  UNL1       -0.2104
     37 O         140.5216  142.0202  167.4374 O.3     1  UNL1       -0.4600
     38 C         141.9921  142.3139  167.4716 C.3     1  UNL1        0.2133
     39 C         142.9647  141.2323  167.8378 C.3     1  UNL1        0.1232
     40 C         142.5930  140.2065  168.8673 C.3     1  UNL1        0.3336
     41 F         142.0769  139.3064  167.7841 F       1  UNL1       -0.1945
     42 F         143.1091  141.1066  169.9505 F       1  UNL1       -0.1945
     43 N         140.9247  139.3011  170.6413 N.am    1  UNL1       -0.3244
     44 C         142.2213  139.1808  169.8967 C.2     1  UNL1        0.2808
     45 O         143.1461  138.0347  170.1815 O.2     1  UNL1       -0.2695
     46 H         140.6807  138.6279  171.3169 H       1  UNL1        0.1451
     47 H         140.3177  140.0533  170.4544 H       1  UNL1        0.1451
@<TRIPOS>BOND
     1    43    44   am
     2    44    45    2
     3    44    40    1
     4    40    41    1
     5    40    42    1
     6    40    39    1
     7    39    38    1
     8    38    37    1
     9    37    26    1
    10    26    27   ar
    11    27    28   ar
    12    28    29   ar
    13    29    30   ar
    14    30    31   ar
    15    31    32   ar
    16    32    33    1
    17    32    34   ar
    18    34    25    1
    19    25     1    1
    20     1     2    1
    21     2     3    1
    22     3     4    1
    23     4     5    1
    24     5    10    1
    25    10    12    1
    26    12    13    1
    27    13    14   ar
    28    14    15   ar
    29    15    16   ar
    30    16    17   ar
    31    17    18   ar
    32    17    19    1
    33    19    20   am
    34    20    21    2
    35    20    22    1
    36    22    23    1
    37     5     6    1
    38     6     7    1
    39     5     8    1
    40     8     9    1
    41    34    35   ar
    42    35    36   ar
    43    36    26   ar
    44    35    29   ar
    45     7     2    1
    46     9     2    1
    47    18    13   ar
    48    23    16    1
    49    43    46    1
    50    43    47    1
    51    10    11    1
    52    19    24    1
@<TRIPOS>MOLECULE
*****
 47 52 0 0 0
SMALL
GASTEIGER

@<TRIPOS>ATOM
      1 C         138.0043  144.0811  164.4416 C.3     1  UNL1        0.0320
      2 C         137.9518  142.7251  163.8026 C.3     1  UNL1        0.0932
      3 C         137.7633  142.6015  162.3196 C.3     1  UNL1        0.0286
      4 C         137.7108  141.2454  161.6807 C.3     1  UNL1        0.0193
      5 C         137.8466  140.0128  162.5247 C.3     1  UNL1        0.0700
      6 C         138.0351  140.1364  164.0077 C.3     1  UNL1        0.0193
      7 C         138.0876  141.4925  164.6466 C.3     1  UNL1        0.0286
      8 C         137.8817  140.7343  162.9200 C.3     1  UNL1        0.1562
      9 O         137.9293  141.9605  163.4978 O.3     1  UNL1       -0.3572
     10 N         137.7941  138.6568  161.8858 N.3     1  UNL1       -0.2926
     11 H         137.0952  138.7074  161.1445 H       1  UNL1        0.1236
     12 C         139.0307  138.0669  161.2753 C.3     1  UNL1        0.1152
     13 C         140.3781  138.3892  161.8504 C.ar    1  UNL1        0.0765
     14 C         141.4197  139.0493  160.9963 C.ar    1  UNL1        0.0193
     15 C         142.7670  139.3716  161.5714 C.ar    1  UNL1        0.0411
     16 C         143.0728  139.0339  163.0005 C.ar    1  UNL1        0.1708
     17 C         142.0313  138.3739  163.8546 C.ar    1  UNL1        0.1682
     18 N         140.6839  138.0515  163.2795 N.ar    1  UNL1       -0.2304
     19 N         142.3371  138.0362  165.2837 N.am    1  UNL1       -0.2639
     20 C         143.6844  138.3585  165.8588 C.2     1  UNL1        0.2718
     21 O         143.9902  138.0208  167.2879 O.2     1  UNL1       -0.2707
     22 C         144.7260  139.0186  165.0047 C.3     1  UNL1        0.2898
     23 O         144.4202  139.3563  163.5756 O.3     1  UNL1       -0.4628
     24 H         141.6534  137.6030  165.8443 H       1  UNL1        0.1565
     25 C         139.3127  144.8057  164.5569 C.3     1  UNL1        0.0327
     26 C         143.2872  142.7590  165.0710 C.ar    1  UNL1        0.2249
     27 C         144.2659  142.7253  163.9348 C.ar    1  UNL1        0.0593
     28 C         143.9198  143.3738  162.6272 C.ar    1  UNL1        0.0254
     29 C         142.5950  144.0560  162.4559 C.ar    1  UNL1        0.0990
     30 N         142.2489  144.7045  161.1483 N.ar    1  UNL1       -0.2400
     31 C         140.9241  145.3867  160.9770 C.ar    1  UNL1        0.1281
     32 C         139.9453  145.4205  162.1132 C.ar    1  UNL1        0.1566
     33 F         138.6205  146.1027  161.9419 F       1  UNL1       -0.2028
     34 C         140.2914  144.7720  163.4207 C.ar    1  UNL1        0.0261
     35 C         141.6163  144.0897  163.5921 C.ar    1  UNL1        0.1002
     36 N         141.9624  143.4412  164.8996 N.ar    1  UNL1       -0.2104
     37 O         143.6333  142.1105  166.3785 O.3     1  UNL1       -0.4600
     38 C         142.5462  141.5637  167.2555 C.3     1  UNL1        0.2133
     39 C         141.8859  142.4482  168.2712 C.3     1  UNL1        0.1232
     40 C         141.7588  141.9909  169.6942 C.3     1  UNL1        0.3336
     41 F         142.7139  140.8677  169.4186 F       1  UNL1       -0.1945
     42 F         140.8036  143.1141  169.9698 F       1  UNL1       -0.1945
     43 N         142.5205  140.4427  171.6366 N.am    1  UNL1       -0.3244
     44 C         141.6316  141.5336  171.1171 C.2     1  UNL1        0.2808
     45 O         140.6156  142.1672  172.0206 O.2     1  UNL1       -0.2695
     46 H         142.4371  140.1426  172.5705 H       1  UNL1        0.1451
     47 H         143.1874  140.0269  171.0437 H       1  UNL1        0.1451
@<TRIPOS>BOND
     1    43    44   am
     2    44    45    2
     3    44    40    1
     4    40    41    1
     5    40    42    1
     6    40    39    1
     7    39    38    1
     8    38    37    1
     9    37    26    1
    10    26    27   ar
    11    27    28   ar
    12    28    29   ar
    13    29    30   ar
    14    30    31   ar
    15    31    32   ar
    16    32    33    1
    17    32    34   ar
    18    34    25    1
    19    25     1    1
    20     1     2    1
    21     2     3    1
    22     3     4    1
    23     4     5    1
    24     5    10    1
    25    10    12    1
    26    12    13    1
    27    13    14   ar
    28    14    15   ar
    29    15    16   ar
    30    16    17   ar
    31    17    18   ar
    32    17    19    1
    33    19    20   am
    34    20    21    2
    35    20    22    1
    36    22    23    1
    37     5     6    1
    38     6     7    1
    39     5     8    1
    40     8     9    1
    41    34    35   ar
    42    35    36   ar
    43    36    26   ar
    44    35    29   ar
    45     7     2    1
    46     9     2    1
    47    18    13   ar
    48    23    16    1
    49    43    46    1
    50    43    47    1
    51    10    11    1
    52    19    24    1
@<TRIPOS>MOLECULE
*****
 47 52 0 0 0
SMALL
GASTEIGER

@<TRIPOS>ATOM
      1 C         138.4998  138.7972  165.5347 C.3     1  UNL1        0.0320
      2 C         138.5163  140.2656  165.2287 C.3     1  UNL1        0.0932
      3 C         137.5956  140.8245  164.1847 C.3     1  UNL1        0.0286
      4 C         137.6121  142.2928  163.8786 C.3     1  UNL1        0.0193
      5 C         138.5492  143.2023  164.6167 C.3     1  UNL1        0.0700
      6 C         139.4699  142.6434  165.6607 C.3     1  UNL1        0.0193
      7 C         139.4534  141.1750  165.9667 C.3     1  UNL1        0.0286
      8 C         138.5763  142.4046  164.8189 C.3     1  UNL1        0.1562
      9 O         138.5614  141.0769  165.0957 O.3     1  UNL1       -0.3572
     10 N         138.5657  144.6706  164.3106 N.3     1  UNL1       -0.2926
     11 H         139.0017  145.1328  165.1085 H       1  UNL1        0.1236
     12 C         139.2663  145.1731  163.0832 C.3     1  UNL1        0.1152
     13 C         140.6570  144.7068  162.7695 C.ar    1  UNL1        0.0765
     14 C         141.8315  145.3292  163.4647 C.ar    1  UNL1        0.0193
     15 C         143.2222  144.8629  163.1510 C.ar    1  UNL1        0.0411
     16 C         143.4385  143.7741  162.1421 C.ar    1  UNL1        0.1708
     17 C         142.2641  143.1517  161.4470 C.ar    1  UNL1        0.1682
     18 N         140.8733  143.6180  161.7606 N.ar    1  UNL1       -0.2304
     19 N         142.4803  142.0629  160.4381 N.am    1  UNL1       -0.2639
     20 C         143.8710  141.5965  160.1244 C.2     1  UNL1        0.2718
     21 O         144.0873  140.5077  159.1156 O.2     1  UNL1       -0.2707
     22 C         145.0455  142.2190  160.8196 C.3     1  UNL1        0.2898
     23 O         144.8292  143.3078  161.8285 O.3     1  UNL1       -0.4628
     24 H         141.7095  141.6543  159.9819 H       1  UNL1        0.1565
     25 C         138.9351  137.8091  164.4934 C.3     1  UNL1        0.0327
     26 C         143.1264  138.7371  165.8431 C.ar    1  UNL1        0.2249
     27 C         144.1711  139.1192  164.8369 C.ar    1  UNL1        0.0593
     28 C         143.8186  139.1920  163.3807 C.ar    1  UNL1        0.0254
     29 C         142.4216  138.8827  162.9307 C.ar    1  UNL1        0.0990
     30 N         142.0691  138.9555  161.4746 N.ar    1  UNL1       -0.2400
     31 C         140.6721  138.6461  161.0246 C.ar    1  UNL1        0.1281
     32 C         139.6273  138.2640  162.0310 C.ar    1  UNL1        0.1566
     33 F         138.2303  137.9547  161.5810 F       1  UNL1       -0.2028
     34 C         139.9798  138.1912  163.4872 C.ar    1  UNL1        0.0261
     35 C         141.3769  138.5006  163.9370 C.ar    1  UNL1        0.1002
     36 N         141.7293  138.4278  165.3932 N.ar    1  UNL1       -0.2104
     37 O         143.4788  138.6644  167.2993 O.3     1  UNL1       -0.4600
     38 C         142.6703  139.4282  168.3057 C.3     1  UNL1        0.2133
     39 C         142.6180  140.9260  168.2448 C.3     1  UNL1        0.1232
     40 C         142.5291  141.7255  169.5109 C.3     1  UNL1        0.3336
     41 F         141.7717  142.7955  168.7820 F       1  UNL1       -0.1945
     42 F         143.2866  140.6556  170.2397 F       1  UNL1       -0.1945
     43 N         143.3404  143.7074  170.9821 N.am    1  UNL1       -0.3244
     44 C         142.4403  142.5250  170.7769 C.2     1  UNL1        0.2808
     45 O         141.4513  142.1423  171.8378 O.2     1  UNL1       -0.2695
     46 H         143.2820  144.2321  171.8130 H       1  UNL1        0.1451
     47 H         143.9894  143.9586  170.2858 H       1  UNL1        0.1451
@<TRIPOS>BOND
     1    43    44   am
     2    44    45    2
     3    44    40    1
     4    40    41    1
     5    40    42    1
     6    40    39    1
     7    39    38    1
     8    38    37    1
     9    37    26    1
    10    26    27   ar
    11    27    28   ar
    12    28    29   ar
    13    29    30   ar
    14    30    31   ar
    15    31    32   ar
    16    32    33    1
    17    32    34   ar
    18    34    25    1
    19    25     1    1
    20     1     2    1
    21     2     3    1
    22     3     4    1
    23     4     5    1
    24     5    10    1
    25    10    12    1
    26    12    13    1
    27    13    14   ar
    28    14    15   ar
    29    15    16   ar
    30    16    17   ar
    31    17    18   ar
    32    17    19    1
    33    19    20   am
    34    20    21    2
    35    20    22    1
    36    22    23    1
    37     5     6    1
    38     6     7    1
    39     5     8    1
    40     8     9    1
    41    34    35   ar
    42    35    36   ar
    43    36    26   ar
    44    35    29   ar
    45     7     2    1
    46     9     2    1
    47    18    13   ar
    48    23    16    1
    49    43    46    1
    50    43    47    1
    51    10    11    1
    52    19    24    1
@<TRIPOS>MOLECULE
*****
 47 52 0 0 0
SMALL
GASTEIGER

@<TRIPOS>ATOM
      1 C         144.5803  143.4861  164.8021 C.3     1  UNL1        0.0320
      2 C         143.1719  143.8151  164.4046 C.3     1  UNL1        0.0932
      3 C         142.9110  144.6264  163.1702 C.3     1  UNL1        0.0286
      4 C         141.5026  144.9553  162.7727 C.3     1  UNL1        0.0193
      5 C         140.3549  144.4730  163.6097 C.3     1  UNL1        0.0700
      6 C         140.6158  143.6617  164.8440 C.3     1  UNL1        0.0193
      7 C         142.0244  143.3327  165.2415 C.3     1  UNL1        0.0286
      8 C         141.1094  144.2676  163.8676 C.3     1  UNL1        0.1562
      9 O         142.3830  143.9701  164.2271 O.3     1  UNL1       -0.3572
     10 N         138.9465  144.8019  163.2122 N.3     1  UNL1       -0.2926
     11 H         139.0011  145.5699  162.5431 H       1  UNL1        0.1236
     12 C         138.0766  143.7487  162.5924 C.3     1  UNL1        0.1152
     13 C         138.2857  142.3043  162.9385 C.ar    1  UNL1        0.0765
     14 C         138.8877  141.3709  161.9302 C.ar    1  UNL1        0.0193
     15 C         139.0967  139.9265  162.2763 C.ar    1  UNL1        0.0411
     16 C         138.7038  139.4153  163.6306 C.ar    1  UNL1        0.1708
     17 C         138.1019  140.3485  164.6389 C.ar    1  UNL1        0.1682
     18 N         137.8928  141.7931  164.2929 N.ar    1  UNL1       -0.2304
     19 N         137.7090  139.8373  165.9933 N.am    1  UNL1       -0.2639
     20 C         137.9180  138.3929  166.3394 C.2     1  UNL1        0.2718
     21 O         137.5252  137.8817  167.6937 O.2     1  UNL1       -0.2707
     22 C         138.5200  137.4595  165.3311 C.3     1  UNL1        0.2898
     23 O         138.9129  137.9707  163.9767 O.3     1  UNL1       -0.4628
     24 H         137.3139  140.4499  166.6551 H       1  UNL1        0.1565
     25 C         145.2919  142.3336  164.1574 C.3     1  UNL1        0.0327
     26 C         143.0082  139.0317  166.1902 C.ar    1  UNL1        0.2249
     27 C         142.2383  138.0381  165.3716 C.ar    1  UNL1        0.0593
     28 C         142.2297  138.1452  163.8755 C.ar    1  UNL1        0.0254
     29 C         142.9909  139.2458  163.1979 C.ar    1  UNL1        0.0990
     30 N         142.9823  139.3528  161.7017 N.ar    1  UNL1       -0.2400
     31 C         143.7435  140.4534  161.0242 C.ar    1  UNL1        0.1281
     32 C         144.5134  141.4470  161.8427 C.ar    1  UNL1        0.1566
     33 F         145.2746  142.5476  161.1651 F       1  UNL1       -0.2028
     34 C         144.5220  141.3400  163.3389 C.ar    1  UNL1        0.0261
     35 C         143.7607  140.2393  164.0165 C.ar    1  UNL1        0.1002
     36 N         143.7694  140.1323  165.5126 N.ar    1  UNL1       -0.2104
     37 O         143.0168  138.9247  167.6863 O.3     1  UNL1       -0.4600
     38 C         142.7532  140.1389  168.5267 C.3     1  UNL1        0.2133
     39 C         141.4995  140.9361  168.3202 C.3     1  UNL1        0.1232
     40 C         141.0142  141.8624  169.3957 C.3     1  UNL1        0.3336
     41 F         142.3731  142.4934  169.4655 F       1  UNL1       -0.1945
     42 F         139.6552  141.2314  169.3259 F       1  UNL1       -0.1945
     43 N         140.1841  144.2099  170.1375 N.am    1  UNL1       -0.3244
     44 C         140.5289  142.7886  170.4711 C.2     1  UNL1        0.2808
     45 O         140.3882  142.2937  171.8801 O.2     1  UNL1       -0.2695
     46 H         139.8656  144.8179  170.8434 H       1  UNL1        0.1451
     47 H         140.2764  144.5348  169.2128 H       1  UNL1        0.1451
@<TRIPOS>BOND
     1    43    44   am
     2    44    45    2
     3    44    40    1
     4    40    41    1
     5    40    42    1
     6    40    39    1
     7    39    38    1
     8    38    37    1
     9    37    26    1
    10    26    27   ar
    11    27    28   ar
    12    28    29   ar
    13    29    30   ar
    14    30    31   ar
    15    31    32   ar
    16    32    33    1
    17    32    34   ar
    18    34    25    1
    19    25     1    1
    20     1     2    1
    21     2     3    1
    22     3     4    1
    23     4     5    1
    24     5    10    1
    25    10    12    1
    26    12    13    1
    27    13    14   ar
    28    14    15   ar
    29    15    16   ar
    30    16    17   ar
    31    17    18   ar
    32    17    19    1
    33    19    20   am
    34    20    21    2
    35    20    22    1
    36    22    23    1
    37     5     6    1
    38     6     7    1
    39     5     8    1
    40     8     9    1
    41    34    35   ar
    42    35    36   ar
    43    36    26   ar
    44    35    29   ar
    45     7     2    1
    46     9     2    1
    47    18    13   ar
    48    23    16    1
    49    43    46    1
    50    43    47    1
    51    10    11    1
    52    19    24    1
@<TRIPOS>MOLECULE
*****
 47 52 0 0 0
SMALL
GASTEIGER

@<TRIPOS>ATOM
      1 C         145.0788  141.1805  163.9621 C.3     1  UNL1        0.0320
      2 C         144.1779  142.3637  163.7665 C.3     1  UNL1        0.0932
      3 C         143.2744  142.8102  164.8775 C.3     1  UNL1        0.0286
      4 C         142.3735  143.9934  164.6819 C.3     1  UNL1        0.0193
      5 C         142.3761  144.7302  163.3753 C.3     1  UNL1        0.0700
      6 C         143.2796  144.2837  162.2643 C.3     1  UNL1        0.0193
      7 C         144.1806  143.1005  162.4600 C.3     1  UNL1        0.0286
      8 C         142.8873  144.0876  163.4355 C.3     1  UNL1        0.1562
      9 O         143.7019  143.0176  163.6124 O.3     1  UNL1       -0.3572
     10 N         141.4752  145.9134  163.1797 N.3     1  UNL1       -0.2926
     11 H         142.0650  146.6838  162.8650 H       1  UNL1        0.1236
     12 C         140.3244  145.8296  162.2212 C.3     1  UNL1        0.1152
     13 C         139.5516  144.5511  162.0871 C.ar    1  UNL1        0.0765
     14 C         138.5862  144.1422  163.1600 C.ar    1  UNL1        0.0193
     15 C         137.8134  142.8636  163.0259 C.ar    1  UNL1        0.0411
     16 C         138.0059  141.9939  161.8190 C.ar    1  UNL1        0.1708
     17 C         138.9712  142.4028  160.7462 C.ar    1  UNL1        0.1682
     18 N         139.7441  143.6814  160.8802 N.ar    1  UNL1       -0.2304
     19 N         139.1637  141.5331  159.5393 N.am    1  UNL1       -0.2639
     20 C         138.3908  140.2545  159.4052 C.2     1  UNL1        0.2718
     21 O         138.5833  139.3848  158.1984 O.2     1  UNL1       -0.2707
     22 C         137.4254  139.8456  160.4781 C.3     1  UNL1        0.2898
     23 O         137.2330  140.7153  161.6850 O.3     1  UNL1       -0.4628
     24 H         139.7973  141.8014  158.8352 H       1  UNL1        0.1565
     25 C         144.5122  139.7921  163.9249 C.3     1  UNL1        0.0327
     26 C         140.8214  139.6164  166.4934 C.ar    1  UNL1        0.2249
     27 C         139.4817  139.3696  165.8654 C.ar    1  UNL1        0.0593
     28 C         139.3723  139.1815  164.3813 C.ar    1  UNL1        0.0254
     29 C         140.6026  139.2400  163.5251 C.ar    1  UNL1        0.0990
     30 N         140.4931  139.0518  162.0410 N.ar    1  UNL1       -0.2400
     31 C         141.7234  139.1104  161.1849 C.ar    1  UNL1        0.1281
     32 C         143.0631  139.3571  161.8128 C.ar    1  UNL1        0.1566
     33 F         144.2934  139.4157  160.9567 F       1  UNL1       -0.2028
     34 C         143.1725  139.5453  163.2970 C.ar    1  UNL1        0.0261
     35 C         141.9422  139.4868  164.1531 C.ar    1  UNL1        0.1002
     36 N         142.0516  139.6749  165.6372 N.ar    1  UNL1       -0.2104
     37 O         140.9308  139.8046  167.9775 O.3     1  UNL1       -0.4600
     38 C         139.7576  140.3209  168.7566 C.3     1  UNL1        0.2133
     39 C         139.9112  141.5304  169.6303 C.3     1  UNL1        0.1232
     40 C         141.2401  142.2189  169.7312 C.3     1  UNL1        0.3336
     41 F         141.7460  141.1137  170.6102 F       1  UNL1       -0.1945
     42 F         140.7343  143.3241  168.8522 F       1  UNL1       -0.1945
     43 N         143.6597  142.5792  168.8559 N.am    1  UNL1       -0.3244
     44 C         142.5689  142.9073  169.8321 C.2     1  UNL1        0.2808
     45 O         142.8072  143.9239  170.9091 O.2     1  UNL1       -0.2695
     46 H         144.5318  143.0311  168.9221 H       1  UNL1        0.1451
     47 H         143.5033  141.9120  168.1491 H       1  UNL1        0.1451
@<TRIPOS>BOND
     1    43    44   am
     2    44    45    2
     3    44    40    1
     4    40    41    1
     5    40    42    1
     6    40    39    1
     7    39    38    1
     8    38    37    1
     9    37    26    1
    10    26    27   ar
    11    27    28   ar
    12    28    29   ar
    13    29    30   ar
    14    30    31   ar
    15    31    32   ar
    16    32    33    1
    17    32    34   ar
    18    34    25    1
    19    25     1    1
    20     1     2    1
    21     2     3    1
    22     3     4    1
    23     4     5    1
    24     5    10    1
    25    10    12    1
    26    12    13    1
    27    13    14   ar
    28    14    15   ar
    29    15    16   ar
    30    16    17   ar
    31    17    18   ar
    32    17    19    1
    33    19    20   am
    34    20    21    2
    35    20    22    1
    36    22    23    1
    37     5     6    1
    38     6     7    1
    39     5     8    1
    40     8     9    1
    41    34    35   ar
    42    35    36   ar
    43    36    26   ar
    44    35    29   ar
    45     7     2    1
    46     9     2    1
    47    18    13   ar
    48    23    16    1
    49    43    46    1
    50    43    47    1
    51    10    11    1
    52    19    24    1
@<TRIPOS>MOLECULE
*****
 47 52 0 0 0
SMALL
GASTEIGER

@<TRIPOS>ATOM
      1 C         142.7160  138.0304  165.5697 C.3     1  UNL1        0.0320
      2 C         141.4965  138.0783  164.6978 C.3     1  UNL1        0.0932
      3 C         140.1945  138.5718  165.2557 C.3     1  UNL1        0.0286
      4 C         138.9749  138.6197  164.3837 C.3     1  UNL1        0.0193
      5 C         139.0573  138.1742  162.9537 C.3     1  UNL1        0.0700
      6 C         140.3593  137.6808  162.3958 C.3     1  UNL1        0.0193
      7 C         141.5789  137.6328  163.2678 C.3     1  UNL1        0.0286
      8 C         139.7524  138.1297  163.3929 C.3     1  UNL1        0.1562
      9 O         140.8552  138.0864  164.1813 O.3     1  UNL1       -0.3572
     10 N         137.8378  138.2222  162.0818 N.3     1  UNL1       -0.2926
     11 H         137.0416  138.3866  162.6978 H       1  UNL1        0.1236
     12 C         137.7455  139.2317  160.9762 C.3     1  UNL1        0.1152
     13 C         138.0870  140.6680  161.2416 C.ar    1  UNL1        0.0765
     14 C         137.4320  141.3972  162.3771 C.ar    1  UNL1        0.0193
     15 C         137.7735  142.8335  162.6425 C.ar    1  UNL1        0.0411
     16 C         138.7700  143.5406  161.7725 C.ar    1  UNL1        0.1708
     17 C         139.4250  142.8115  160.6370 C.ar    1  UNL1        0.1682
     18 N         139.0835  141.3751  160.3716 N.ar    1  UNL1       -0.2304
     19 N         140.4214  143.5186  159.7670 N.am    1  UNL1       -0.2639
     20 C         140.7629  144.9549  160.0324 C.2     1  UNL1        0.2718
     21 O         141.7594  145.6620  159.1623 O.2     1  UNL1       -0.2707
     22 C         140.1080  145.6841  161.1679 C.3     1  UNL1        0.2898
     23 O         139.1115  144.9769  162.0380 O.3     1  UNL1       -0.4628
     24 H         140.8513  143.0400  159.0217 H       1  UNL1        0.1565
     25 C         143.5445  139.2649  165.7691 C.3     1  UNL1        0.0327
     26 C         140.9767  142.9587  165.8804 C.ar    1  UNL1        0.2249
     27 C         141.0805  143.9774  164.7843 C.ar    1  UNL1        0.0593
     28 C         142.0401  143.7649  163.6512 C.ar    1  UNL1        0.0254
     29 C         142.8960  142.5337  163.6141 C.ar    1  UNL1        0.0990
     30 N         143.8556  142.3212  162.4810 N.ar    1  UNL1       -0.2400
     31 C         144.7115  141.0900  162.4439 C.ar    1  UNL1        0.1281
     32 C         144.6078  140.0711  163.5399 C.ar    1  UNL1        0.1566
     33 F         145.4637  138.8399  163.5029 F       1  UNL1       -0.2028
     34 C         143.6482  140.2836  164.6731 C.ar    1  UNL1        0.0261
     35 C         142.7923  141.5150  164.7101 C.ar    1  UNL1        0.1002
     36 N         141.8327  141.7274  165.8433 N.ar    1  UNL1       -0.2104
     37 O         140.0171  143.1712  167.0135 O.3     1  UNL1       -0.4600
     38 C         140.4412  142.8739  168.4212 C.3     1  UNL1        0.2133
     39 C         140.1672  141.5254  169.0182 C.3     1  UNL1        0.1232
     40 C         141.3020  140.6832  169.5212 C.3     1  UNL1        0.3336
     41 F         141.3704  141.5185  170.7652 F       1  UNL1       -0.1945
     42 F         141.2336  139.8479  168.2772 F       1  UNL1       -0.1945
     43 N         143.0677  140.1474  171.3503 N.am    1  UNL1       -0.3244
     44 C         142.4367  139.8411  170.0243 C.2     1  UNL1        0.2808
     45 O         142.9406  138.6926  169.2014 O.2     1  UNL1       -0.2695
     46 H         143.8125  139.5947  171.6804 H       1  UNL1        0.1451
     47 H         142.7370  140.9012  171.8904 H       1  UNL1        0.1451
@<TRIPOS>BOND
     1    43    44   am
     2    44    45    2
     3    44    40    1
     4    40    41    1
     5    40    42    1
     6    40    39    1
     7    39    38    1
     8    38    37    1
     9    37    26    1
    10    26    27   ar
    11    27    28   ar
    12    28    29   ar
    13    29    30   ar
    14    30    31   ar
    15    31    32   ar
    16    32    33    1
    17    32    34   ar
    18    34    25    1
    19    25     1    1
    20     1     2    1
    21     2     3    1
    22     3     4    1
    23     4     5    1
    24     5    10    1
    25    10    12    1
    26    12    13    1
    27    13    14   ar
    28    14    15   ar
    29    15    16   ar
    30    16    17   ar
    31    17    18   ar
    32    17    19    1
    33    19    20   am
    34    20    21    2
    35    20    22    1
    36    22    23    1
    37     5     6    1
    38     6     7    1
    39     5     8    1
    40     8     9    1
    41    34    35   ar
    42    35    36   ar
    43    36    26   ar
    44    35    29   ar
    45     7     2    1
    46     9     2    1
    47    18    13   ar
    48    23    16    1
    49    43    46    1
    50    43    47    1
    51    10    11    1
    52    19    24    1
@<TRIPOS>MOLECULE
*****
 47 52 0 0 0
SMALL
GASTEIGER

@<TRIPOS>ATOM
      1 C         138.4663  138.0849  165.4524 C.3     1  UNL1        0.0320
      2 C         139.4866  137.9232  164.3649 C.3     1  UNL1        0.0932
      3 C         139.0885  138.1033  162.9300 C.3     1  UNL1        0.0286
      4 C         140.1089  137.9416  161.8426 C.3     1  UNL1        0.0193
      5 C         141.5275  137.5996  162.1900 C.3     1  UNL1        0.0700
      6 C         141.9256  137.4194  163.6249 C.3     1  UNL1        0.0193
      7 C         140.9052  137.5812  164.7124 C.3     1  UNL1        0.0286
      8 C         141.0037  137.6781  162.8204 C.3     1  UNL1        0.1562
      9 O         140.0810  137.8244  163.8038 O.3     1  UNL1       -0.3572
     10 N         142.5479  137.4378  161.1025 N.3     1  UNL1       -0.2926
     11 H         142.0389  137.4392  160.2186 H       1  UNL1        0.1236
     12 C         143.6601  138.4346  160.9633 C.3     1  UNL1        0.1152
     13 C         143.4323  139.8695  161.3365 C.ar    1  UNL1        0.0765
     14 C         144.2806  140.5135  162.3928 C.ar    1  UNL1        0.0193
     15 C         144.0529  141.9484  162.7659 C.ar    1  UNL1        0.0411
     16 C         142.9769  142.7393  162.0827 C.ar    1  UNL1        0.1708
     17 C         142.1286  142.0953  161.0265 C.ar    1  UNL1        0.1682
     18 N         142.3563  140.6604  160.6533 N.ar    1  UNL1       -0.2304
     19 N         141.0526  142.8862  160.3433 N.am    1  UNL1       -0.2639
     20 C         140.8248  144.3211  160.7164 C.2     1  UNL1        0.2718
     21 O         139.7488  145.1120  160.0333 O.2     1  UNL1       -0.2707
     22 C         141.6731  144.9651  161.7728 C.3     1  UNL1        0.2898
     23 O         142.7491  144.1742  162.4559 O.3     1  UNL1       -0.4628
     24 H         140.4959  142.4635  159.6501 H       1  UNL1        0.1565
     25 C         138.1782  139.4457  166.0142 C.3     1  UNL1        0.0327
     26 C         142.1955  140.4325  167.7852 C.ar    1  UNL1        0.2249
     27 C         142.9602  141.6249  167.2919 C.ar    1  UNL1        0.0593
     28 C         142.3858  142.4883  166.2082 C.ar    1  UNL1        0.0254
     29 C         141.0467  142.1594  165.6178 C.ar    1  UNL1        0.0990
     30 N         140.4722  143.0229  164.5341 N.ar    1  UNL1       -0.2400
     31 C         139.1331  142.6940  163.9438 C.ar    1  UNL1        0.1281
     32 C         138.3684  141.5015  164.4371 C.ar    1  UNL1        0.1566
     33 F         137.0293  141.1726  163.8468 F       1  UNL1       -0.2028
     34 C         138.9428  140.6380  165.5208 C.ar    1  UNL1        0.0261
     35 C         140.2820  140.9670  166.1112 C.ar    1  UNL1        0.1002
     36 N         140.8564  140.1036  167.1949 N.ar    1  UNL1       -0.2104
     37 O         142.7700  139.5690  168.8690 O.3     1  UNL1       -0.4600
     38 C         142.4225  139.8355  170.3036 C.3     1  UNL1        0.2133
     39 C         141.0097  140.1657  170.6842 C.3     1  UNL1        0.1232
     40 C         140.5516  141.5940  170.7006 C.3     1  UNL1        0.3336
     41 F         141.8494  142.0029  171.3320 F       1  UNL1       -0.1945
     42 F         139.2539  141.1852  170.0692 F       1  UNL1       -0.1945
     43 N         140.8879  144.0729  169.9989 N.am    1  UNL1       -0.3244
     44 C         140.0937  143.0223  170.7170 C.2     1  UNL1        0.2808
     45 O         138.8416  143.4000  171.4515 O.2     1  UNL1       -0.2695
     46 H         140.5874  145.0103  170.0097 H       1  UNL1        0.1451
     47 H         141.7097  143.8250  169.5169 H       1  UNL1        0.1451
@<TRIPOS>BOND
     1    43    44   am
     2    44    45    2
     3    44    40    1
     4    40    41    1
     5    40    42    1
     6    40    39    1
     7    39    38    1
     8    38    37    1
     9    37    26    1
    10    26    27   ar
    11    27    28   ar
    12    28    29   ar
    13    29    30   ar
    14    30    31   ar
    15    31    32   ar
    16    32    33    1
    17    32    34   ar
    18    34    25    1
    19    25     1    1
    20     1     2    1
    21     2     3    1
    22     3     4    1
    23     4     5    1
    24     5    10    1
    25    10    12    1
    26    12    13    1
    27    13    14   ar
    28    14    15   ar
    29    15    16   ar
    30    16    17   ar
    31    17    18   ar
    32    17    19    1
    33    19    20   am
    34    20    21    2
    35    20    22    1
    36    22    23    1
    37     5     6    1
    38     6     7    1
    39     5     8    1
    40     8     9    1
    41    34    35   ar
    42    35    36   ar
    43    36    26   ar
    44    35    29   ar
    45     7     2    1
    46     9     2    1
    47    18    13   ar
    48    23    16    1
    49    43    46    1
    50    43    47    1
    51    10    11    1
    52    19    24    1
