@<TRIPOS>MOLECULE
*****
 37 41 0 0 0
SMALL
GASTEIGER

@<TRIPOS>ATOM
      1 C         139.3591  138.3897  165.1108 C.3     1  UNL1        0.0546
      2 C         138.5662  138.8311  166.3051 C.3     1  UNL1        0.0180
      3 C         139.4912  139.5651  167.2300 C.3     1  UNL1        0.0310
      4 C         139.5729  140.2916  168.5398 C.3     1  UNL1        0.0939
      5 N         140.9880  140.7528  168.7266 N.am    1  UNL1       -0.2790
      6 C         141.5172  141.5207  169.9016 C.2     1  UNL1        0.2261
      7 C         140.6001  141.8940  171.0282 C.3     1  UNL1        0.0948
      8 O         142.9636  141.9152  169.9498 O.2     1  UNL1       -0.2749
      9 C         141.7809  140.3114  167.5323 C.3     1  UNL1        0.1020
     10 C         140.8559  139.5774  166.6074 C.3     1  UNL1        0.0902
     11 C         140.7742  138.8509  165.2976 C.3     1  UNL1        0.0261
     12 C         142.2204  139.5896  165.9847 C.2     1  UNL1        0.2267
     13 O         143.2406  138.5687  166.3935 O.2     1  UNL1       -0.2748
     14 N         142.5650  140.6227  164.9531 N.am    1  UNL1       -0.2750
     15 C         143.9295  140.6349  164.3305 C.3     1  UNL1        0.1000
     16 C         144.2740  141.6680  163.2990 C.3     1  UNL1        0.0670
     17 C         143.2538  142.6889  162.8902 C.ar    1  UNL1        0.0583
     18 N         143.5983  143.7221  161.8586 N.ar    1  UNL1       -0.2484
     19 C         142.5782  144.7430  161.4498 C.ar    1  UNL1        0.1023
     20 C         141.2136  144.7307  162.0726 C.ar    1  UNL1        0.0902
     21 C         140.8692  143.6976  163.1040 C.ar    1  UNL1        0.0040
     22 C         141.8893  142.6767  163.5128 C.ar    1  UNL1        0.0113
     23 C         141.5448  141.6436  164.5443 C.3     1  UNL1        0.1213
     24 C         140.1935  145.7516  161.6638 C.3     1  UNL1        0.4200
     25 F         139.1734  146.7725  161.2550 F       1  UNL1       -0.1658
     26 F         139.5498  145.6494  163.0148 F       1  UNL1       -0.1658
     27 F         140.8372  145.8538  160.3128 F       1  UNL1       -0.1658
     28 N         138.8299  137.6218  163.9358 N.3     1  UNL1       -0.2975
     29 H         139.3710  136.7590  163.8801 H       1  UNL1        0.1232
     30 C         140.0472  138.0499  161.6809 C.3     1  UNL1        0.1591
     31 C         140.0689  138.6638  160.3124 C.3     1  UNL1        0.1729
     32 O         138.8950  139.4635  159.8304 O.3     1  UNL1       -0.3511
     33 C         137.6993  139.6493  160.7169 C.3     1  UNL1        0.1437
     34 C         137.6776  139.0354  162.0854 C.3     1  UNL1        0.0503
     35 C         138.8516  138.2357  162.5674 C.3     1  UNL1        0.0865
     36 C         142.5757  137.8879  162.2559 C.3     1  UNL1        0.1742
     37 O         141.2211  137.2502  162.1628 O.3     1  UNL1       -0.3496
@<TRIPOS>BOND
     1    36    37    1
     2    37    30    1
     3    30    31    1
     4    31    32    1
     5    32    33    1
     6    33    34    1
     7    34    35    1
     8    35    28    1
     9     1    28    1
    10     1     2    1
    11     3     2    1
    12     3     4    1
    13     4     5    1
    14     5     6   am
    15     6     7    1
    16     6     8    2
    17     5     9    1
    18     9    10    1
    19    10    12    1
    20    12    13    2
    21    12    14   am
    22    14    15    1
    23    15    16    1
    24    16    17    1
    25    17    18   ar
    26    18    19   ar
    27    19    20   ar
    28    20    24    1
    29    24    25    1
    30    24    26    1
    31    24    27    1
    32    20    21   ar
    33    21    22   ar
    34    22    23    1
    35    10    11    1
    36    35    30    1
    37    11     1    1
    38    10     3    1
    39    23    14    1
    40    22    17   ar
    41    28    29    1
@<TRIPOS>MOLECULE
*****
 37 41 0 0 0
SMALL
GASTEIGER

@<TRIPOS>ATOM
      1 C         138.9064  142.7131  165.0764 C.3     1  UNL1        0.0546
      2 C         139.7427  143.5586  165.9906 C.3     1  UNL1        0.0180
      3 C         140.5445  142.6415  166.8658 C.3     1  UNL1        0.0310
      4 C         141.5570  142.5972  167.9717 C.3     1  UNL1        0.0939
      5 N         141.8420  141.1576  168.2819 N.am    1  UNL1       -0.2790
      6 C         142.7959  140.6522  169.3234 C.2     1  UNL1        0.2261
      7 C         143.5678  141.6226  170.1675 C.3     1  UNL1        0.0948
      8 O         142.9777  139.1764  169.5209 O.2     1  UNL1       -0.2749
      9 C         141.0057  140.3121  167.3677 C.3     1  UNL1        0.1020
     10 C         140.2038  141.2292  166.4925 C.3     1  UNL1        0.0902
     11 C         139.1914  141.2734  165.3866 C.3     1  UNL1        0.0261
     12 C         139.8632  139.8169  166.1192 C.2     1  UNL1        0.2267
     13 O         139.0173  138.9824  167.0347 O.2     1  UNL1       -0.2748
     14 N         140.3683  139.2391  164.8303 N.am    1  UNL1       -0.2750
     15 C         140.0276  137.8269  164.4570 C.3     1  UNL1        0.1000
     16 C         140.5327  137.2492  163.1682 C.3     1  UNL1        0.0670
     17 C         141.3785  138.0837  162.2527 C.ar    1  UNL1        0.0583
     18 N         141.8837  137.5059  160.9639 N.ar    1  UNL1       -0.2484
     19 C         142.7295  138.3405  160.0484 C.ar    1  UNL1        0.1023
     20 C         143.0702  139.7528  160.4218 C.ar    1  UNL1        0.0902
     21 C         142.5651  140.3305  161.7106 C.ar    1  UNL1        0.0040
     22 C         141.7192  139.4960  162.6260 C.ar    1  UNL1        0.0113
     23 C         141.2141  140.0737  163.9148 C.3     1  UNL1        0.1213
     24 C         143.9160  140.5874  159.5063 C.3     1  UNL1        0.4200
     25 F         144.7618  141.4219  158.5908 F       1  UNL1       -0.1658
     26 F         143.5584  139.6905  158.3583 F       1  UNL1       -0.1658
     27 F         144.2736  141.4842  160.6542 F       1  UNL1       -0.1658
     28 N         137.9525  143.2185  164.0349 N.3     1  UNL1       -0.2975
     29 H         137.1869  142.5463  163.9858 H       1  UNL1        0.1232
     30 C         138.0711  142.4542  161.5546 C.3     1  UNL1        0.1591
     31 C         138.5442  142.6750  160.1484 C.3     1  UNL1        0.1729
     32 O         139.3718  143.8811  159.8163 O.3     1  UNL1       -0.3511
     33 C         139.7264  144.8664  160.8903 C.3     1  UNL1        0.1437
     34 C         139.2533  144.6455  162.2965 C.3     1  UNL1        0.0503
     35 C         138.4256  143.4394  162.6287 C.3     1  UNL1        0.0865
     36 C         137.9114  139.9361  162.1743 C.3     1  UNL1        0.1742
     37 O         137.2435  141.2481  161.8867 O.3     1  UNL1       -0.3496
@<TRIPOS>BOND
     1    36    37    1
     2    37    30    1
     3    30    31    1
     4    31    32    1
     5    32    33    1
     6    33    34    1
     7    34    35    1
     8    35    28    1
     9     1    28    1
    10     1     2    1
    11     3     2    1
    12     3     4    1
    13     4     5    1
    14     5     6   am
    15     6     7    1
    16     6     8    2
    17     5     9    1
    18     9    10    1
    19    10    12    1
    20    12    13    2
    21    12    14   am
    22    14    15    1
    23    15    16    1
    24    16    17    1
    25    17    18   ar
    26    18    19   ar
    27    19    20   ar
    28    20    24    1
    29    24    25    1
    30    24    26    1
    31    24    27    1
    32    20    21   ar
    33    21    22   ar
    34    22    23    1
    35    10    11    1
    36    35    30    1
    37    11     1    1
    38    10     3    1
    39    23    14    1
    40    22    17   ar
    41    28    29    1
@<TRIPOS>MOLECULE
*****
 37 41 0 0 0
SMALL
GASTEIGER

@<TRIPOS>ATOM
      1 C         143.8042  139.5810  164.6391 C.3     1  UNL1        0.0546
      2 C         142.9205  138.7926  165.5597 C.3     1  UNL1        0.0180
      3 C         142.2454  139.7551  166.4913 C.3     1  UNL1        0.0310
      4 C         141.2820  139.8627  167.6359 C.3     1  UNL1        0.0939
      5 N         141.1531  141.3125  167.9986 N.am    1  UNL1       -0.2790
      6 C         140.2916  141.8751  169.0902 C.2     1  UNL1        0.2261
      7 C         139.4570  140.9584  169.9346 C.3     1  UNL1        0.0948
      8 O         140.2649  143.3543  169.3373 O.2     1  UNL1       -0.2749
      9 C         142.0368  142.1009  167.0780 C.3     1  UNL1        0.1020
     10 C         142.7119  141.1384  166.1464 C.3     1  UNL1        0.0902
     11 C         143.6752  141.0308  165.0018 C.3     1  UNL1        0.0261
     12 C         143.1783  142.5217  165.8016 C.2     1  UNL1        0.2267
     13 O         144.1615  143.2249  166.6898 O.2     1  UNL1       -0.2748
     14 N         142.6616  143.2019  164.5685 N.am    1  UNL1       -0.2750
     15 C         143.1281  144.5851  164.2237 C.3     1  UNL1        0.1000
     16 C         142.6113  145.2652  162.9907 C.3     1  UNL1        0.0670
     17 C         141.6281  144.5620  162.1025 C.ar    1  UNL1        0.0583
     18 N         141.1114  145.2422  160.8694 N.ar    1  UNL1       -0.2484
     19 C         140.1282  144.5390  159.9812 C.ar    1  UNL1        0.1023
     20 C         139.6618  143.1557  160.3261 C.ar    1  UNL1        0.0902
     21 C         140.1785  142.4756  161.5591 C.ar    1  UNL1        0.0040
     22 C         141.1617  143.1788  162.4473 C.ar    1  UNL1        0.0113
     23 C         141.6784  142.4987  163.6803 C.3     1  UNL1        0.1213
     24 C         138.6786  142.4525  159.4379 C.3     1  UNL1        0.4200
     25 F         137.6954  141.7494  158.5497 F       1  UNL1       -0.1658
     26 F         138.2727  141.5732  160.5833 F       1  UNL1       -0.1658
     27 F         139.0845  143.3318  158.2924 F       1  UNL1       -0.1658
     28 N         144.6656  139.0185  163.5475 N.3     1  UNL1       -0.2975
     29 H         145.5242  139.5690  163.5367 H       1  UNL1        0.1232
     30 C         144.3362  140.1710  161.2426 C.3     1  UNL1        0.1591
     31 C         143.8288  140.1323  159.8315 C.3     1  UNL1        0.1729
     32 O         143.1435  138.9024  159.3144 O.3     1  UNL1       -0.3511
     33 C         142.9655  137.7110  160.2083 C.3     1  UNL1        0.1437
     34 C         143.4729  137.7497  161.6194 C.3     1  UNL1        0.0503
     35 C         144.1583  138.9798  162.1365 C.3     1  UNL1        0.0865
     36 C         144.7017  142.7423  161.1690 C.3     1  UNL1        0.1742
     37 O         145.0215  141.4010  161.7597 O.3     1  UNL1       -0.3496
@<TRIPOS>BOND
     1    36    37    1
     2    37    30    1
     3    30    31    1
     4    31    32    1
     5    32    33    1
     6    33    34    1
     7    34    35    1
     8    35    28    1
     9     1    28    1
    10     1     2    1
    11     3     2    1
    12     3     4    1
    13     4     5    1
    14     5     6   am
    15     6     7    1
    16     6     8    2
    17     5     9    1
    18     9    10    1
    19    10    12    1
    20    12    13    2
    21    12    14   am
    22    14    15    1
    23    15    16    1
    24    16    17    1
    25    17    18   ar
    26    18    19   ar
    27    19    20   ar
    28    20    24    1
    29    24    25    1
    30    24    26    1
    31    24    27    1
    32    20    21   ar
    33    21    22   ar
    34    22    23    1
    35    10    11    1
    36    35    30    1
    37    11     1    1
    38    10     3    1
    39    23    14    1
    40    22    17   ar
    41    28    29    1
@<TRIPOS>MOLECULE
*****
 37 41 0 0 0
SMALL
GASTEIGER

@<TRIPOS>ATOM
      1 C         144.2631  141.8638  165.0099 C.3     1  UNL1        0.0546
      2 C         143.8734  142.9048  166.0170 C.3     1  UNL1        0.0180
      3 C         143.0167  142.2459  167.0572 C.3     1  UNL1        0.0310
      4 C         142.2464  142.4820  168.3224 C.3     1  UNL1        0.0939
      5 N         141.6305  141.1796  168.7401 N.am    1  UNL1       -0.2790
      6 C         140.7751  140.9574  169.9521 C.2     1  UNL1        0.2261
      7 C         140.4685  142.1006  170.8736 C.3     1  UNL1        0.0948
      8 O         140.2264  139.5919  170.2426 O.2     1  UNL1       -0.2749
      9 C         142.0202  140.1386  167.7330 C.3     1  UNL1        0.1020
     10 C         142.8769  140.7975  166.6929 C.3     1  UNL1        0.0902
     11 C         143.6472  140.5614  165.4276 C.3     1  UNL1        0.0261
     12 C         142.7371  139.3492  166.3286 C.2     1  UNL1        0.2267
     13 O         143.3632  138.2947  167.1924 O.2     1  UNL1       -0.2748
     14 N         141.9712  138.9552  165.1004 N.am    1  UNL1       -0.2750
     15 C         141.8314  137.5069  164.7361 C.3     1  UNL1        0.1000
     16 C         141.0655  137.1131  163.5080 C.3     1  UNL1        0.0670
     17 C         140.4394  138.1675  162.6442 C.ar    1  UNL1        0.0583
     18 N         139.6735  137.7736  161.4161 N.ar    1  UNL1       -0.2484
     19 C         139.0475  138.8280  160.5523 C.ar    1  UNL1        0.1023
     20 C         139.1873  140.2764  160.9166 C.ar    1  UNL1        0.0902
     21 C         139.9532  140.6703  162.1447 C.ar    1  UNL1        0.0040
     22 C         140.5792  139.6158  163.0085 C.ar    1  UNL1        0.0113
     23 C         141.3451  140.0097  164.2366 C.3     1  UNL1        0.1213
     24 C         138.5612  141.3309  160.0528 C.3     1  UNL1        0.4200
     25 F         137.9352  142.3854  159.1890 F       1  UNL1       -0.1658
     26 F         137.7259  140.2830  159.3790 F       1  UNL1       -0.1658
     27 F         139.3966  142.3788  160.7267 F       1  UNL1       -0.1658
     28 N         145.1185  142.0860  163.7979 N.3     1  UNL1       -0.2975
     29 H         145.4958  143.0307  163.8730 H       1  UNL1        0.1232
     30 C         144.0701  143.1946  161.6951 C.3     1  UNL1        0.1591
     31 C         143.4738  143.0743  160.3240 C.3     1  UNL1        0.1729
     32 O         143.3295  141.7251  159.6846 O.3     1  UNL1       -0.3511
     33 C         143.7815  140.4961  160.4163 C.3     1  UNL1        0.1437
     34 C         144.3778  140.6164  161.7874 C.3     1  UNL1        0.0503
     35 C         144.5221  141.9657  162.4268 C.3     1  UNL1        0.0865
     36 C         143.1222  145.0783  163.2127 C.3     1  UNL1        0.1742
     37 O         144.2145  144.5438  162.3344 O.3     1  UNL1       -0.3496
@<TRIPOS>BOND
     1    36    37    1
     2    37    30    1
     3    30    31    1
     4    31    32    1
     5    32    33    1
     6    33    34    1
     7    34    35    1
     8    35    28    1
     9     1    28    1
    10     1     2    1
    11     3     2    1
    12     3     4    1
    13     4     5    1
    14     5     6   am
    15     6     7    1
    16     6     8    2
    17     5     9    1
    18     9    10    1
    19    10    12    1
    20    12    13    2
    21    12    14   am
    22    14    15    1
    23    15    16    1
    24    16    17    1
    25    17    18   ar
    26    18    19   ar
    27    19    20   ar
    28    20    24    1
    29    24    25    1
    30    24    26    1
    31    24    27    1
    32    20    21   ar
    33    21    22   ar
    34    22    23    1
    35    10    11    1
    36    35    30    1
    37    11     1    1
    38    10     3    1
    39    23    14    1
    40    22    17   ar
    41    28    29    1
@<TRIPOS>MOLECULE
*****
 37 41 0 0 0
SMALL
GASTEIGER

@<TRIPOS>ATOM
      1 C         138.6842  141.9834  159.8197 C.3     1  UNL1        0.0546
      2 C         138.1743  140.6455  159.3723 C.3     1  UNL1        0.0180
      3 C         139.2670  139.9678  158.5997 C.3     1  UNL1        0.0310
      4 C         139.6272  138.7221  157.8457 C.3     1  UNL1        0.0939
      5 N         141.0349  138.8713  157.3497 N.am    1  UNL1       -0.2790
      6 C         141.7987  137.8600  156.5471 C.2     1  UNL1        0.2261
      7 C         141.1543  136.5586  156.1719 C.3     1  UNL1        0.0948
      8 O         143.2069  138.1504  156.1197 O.2     1  UNL1       -0.2749
      9 C         141.5447  140.2092  157.7970 C.3     1  UNL1        0.1020
     10 C         140.4521  140.8869  158.5696 C.3     1  UNL1        0.0902
     11 C         140.0919  142.1326  159.3236 C.3     1  UNL1        0.0261
     12 C         141.6372  141.8059  158.5395 C.2     1  UNL1        0.2267
     13 O         141.8131  142.7658  157.4004 O.2     1  UNL1       -0.2748
     14 N         142.6464  141.7651  159.6486 N.am    1  UNL1       -0.2750
     15 C         143.8314  142.6841  159.6185 C.3     1  UNL1        0.1000
     16 C         144.8405  142.6432  160.7276 C.3     1  UNL1        0.0670
     17 C         144.6645  141.6833  161.8667 C.ar    1  UNL1        0.0583
     18 N         145.6737  141.6425  162.9758 N.ar    1  UNL1       -0.2484
     19 C         145.4977  140.6826  164.1149 C.ar    1  UNL1        0.1023
     20 C         144.3126  139.7635  164.1449 C.ar    1  UNL1        0.0902
     21 C         143.3035  139.8044  163.0359 C.ar    1  UNL1        0.0040
     22 C         143.4795  140.7643  161.8968 C.ar    1  UNL1        0.0113
     23 C         142.4704  140.8052  160.7877 C.3     1  UNL1        0.1213
     24 C         144.1366  138.8036  165.2841 C.3     1  UNL1        0.4200
     25 F         143.9606  137.8437  166.4232 F       1  UNL1       -0.1658
     26 F         142.6489  138.9754  165.1990 F       1  UNL1       -0.1658
     27 F         145.6243  138.6318  165.3691 F       1  UNL1       -0.1658
     28 N         137.9204  142.9947  160.6222 N.3     1  UNL1       -0.2975
     29 H         138.1691  143.9124  160.2530 H       1  UNL1        0.1232
     30 C         138.4893  144.3579  162.7595 C.3     1  UNL1        0.1591
     31 C         138.6699  144.4262  164.2470 C.3     1  UNL1        0.1729
     32 O         138.4621  143.1996  165.0848 O.3     1  UNL1       -0.3511
     33 C         138.0737  141.9045  164.4351 C.3     1  UNL1        0.1437
     34 C         137.8931  141.8362  162.9476 C.3     1  UNL1        0.0503
     35 C         138.1009  143.0630  162.1098 C.3     1  UNL1        0.0865
     36 C         140.0480  145.8735  161.3369 C.3     1  UNL1        0.1742
     37 O         138.6971  145.5846  161.9216 O.3     1  UNL1       -0.3496
@<TRIPOS>BOND
     1    36    37    1
     2    37    30    1
     3    30    31    1
     4    31    32    1
     5    32    33    1
     6    33    34    1
     7    34    35    1
     8    35    28    1
     9     1    28    1
    10     1     2    1
    11     3     2    1
    12     3     4    1
    13     4     5    1
    14     5     6   am
    15     6     7    1
    16     6     8    2
    17     5     9    1
    18     9    10    1
    19    10    12    1
    20    12    13    2
    21    12    14   am
    22    14    15    1
    23    15    16    1
    24    16    17    1
    25    17    18   ar
    26    18    19   ar
    27    19    20   ar
    28    20    24    1
    29    24    25    1
    30    24    26    1
    31    24    27    1
    32    20    21   ar
    33    21    22   ar
    34    22    23    1
    35    10    11    1
    36    35    30    1
    37    11     1    1
    38    10     3    1
    39    23    14    1
    40    22    17   ar
    41    28    29    1
@<TRIPOS>MOLECULE
*****
 37 41 0 0 0
SMALL
GASTEIGER

@<TRIPOS>ATOM
      1 C         141.4847  137.8718  164.3814 C.3     1  UNL1        0.0546
      2 C         142.6247  138.0052  165.3471 C.3     1  UNL1        0.0180
      3 C         142.2103  138.9641  166.4237 C.3     1  UNL1        0.0310
      4 C         142.6588  139.6391  167.6859 C.3     1  UNL1        0.0939
      5 N         141.5399  140.5155  168.1655 N.am    1  UNL1       -0.2790
      6 C         141.5578  141.3745  169.3952 C.2     1  UNL1        0.2261
      7 C         142.7758  141.4064  170.2701 C.3     1  UNL1        0.0948
      8 O         140.3578  142.2016  169.7498 O.2     1  UNL1       -0.2749
      9 C         140.3999  140.3821  167.1998 C.3     1  UNL1        0.1020
     10 C         140.8142  139.4232  166.1233 C.3     1  UNL1        0.0902
     11 C         140.3658  138.7482  164.8611 C.3     1  UNL1        0.0261
     12 C         139.4182  139.8824  165.8229 C.2     1  UNL1        0.2267
     13 O         138.2899  139.4975  166.7332 O.2     1  UNL1       -0.2748
     14 N         139.1505  140.7264  164.6121 N.am    1  UNL1       -0.2750
     15 C         137.7545  141.1856  164.3116 C.3     1  UNL1        0.1000
     16 C         137.4868  142.0296  163.1009 C.3     1  UNL1        0.0670
     17 C         138.6152  142.4145  162.1906 C.ar    1  UNL1        0.0583
     18 N         138.3474  143.2585  160.9798 N.ar    1  UNL1       -0.2484
     19 C         139.4758  143.6434  160.0694 C.ar    1  UNL1        0.1023
     20 C         140.8718  143.1842  160.3699 C.ar    1  UNL1        0.0902
     21 C         141.1395  142.3402  161.5807 C.ar    1  UNL1        0.0040
     22 C         140.0112  141.9553  162.4910 C.ar    1  UNL1        0.0113
     23 C         140.2788  141.1113  163.7017 C.3     1  UNL1        0.1213
     24 C         142.0002  143.5691  159.4596 C.3     1  UNL1        0.4200
     25 F         143.1285  143.9540  158.5493 F       1  UNL1       -0.1658
     26 F         141.6038  145.0110  159.5779 F       1  UNL1       -0.1658
     27 F         142.3966  142.1273  159.3413 F       1  UNL1       -0.1658
     28 N         141.4667  137.0128  163.1518 N.3     1  UNL1       -0.2975
     29 H         142.2800  136.3997  163.2089 H       1  UNL1        0.1232
     30 C         140.2333  138.1767  161.1835 C.3     1  UNL1        0.1591
     31 C         140.2642  138.8114  159.8248 C.3     1  UNL1        0.1729
     32 O         141.5593  138.9168  159.0755 O.3     1  UNL1       -0.3511
     33 C         142.8237  138.3875  159.6849 C.3     1  UNL1        0.1437
     34 C         142.7928  137.7529  161.0437 C.3     1  UNL1        0.0503
     35 C         141.4976  137.6475  161.7930 C.3     1  UNL1        0.0865
     36 C         137.7230  138.7967  161.4359 C.3     1  UNL1        0.1742
     37 O         138.9382  138.0713  161.9329 O.3     1  UNL1       -0.3496
@<TRIPOS>BOND
     1    36    37    1
     2    37    30    1
     3    30    31    1
     4    31    32    1
     5    32    33    1
     6    33    34    1
     7    34    35    1
     8    35    28    1
     9     1    28    1
    10     1     2    1
    11     3     2    1
    12     3     4    1
    13     4     5    1
    14     5     6   am
    15     6     7    1
    16     6     8    2
    17     5     9    1
    18     9    10    1
    19    10    12    1
    20    12    13    2
    21    12    14   am
    22    14    15    1
    23    15    16    1
    24    16    17    1
    25    17    18   ar
    26    18    19   ar
    27    19    20   ar
    28    20    24    1
    29    24    25    1
    30    24    26    1
    31    24    27    1
    32    20    21   ar
    33    21    22   ar
    34    22    23    1
    35    10    11    1
    36    35    30    1
    37    11     1    1
    38    10     3    1
    39    23    14    1
    40    22    17   ar
    41    28    29    1
@<TRIPOS>MOLECULE
*****
 37 41 0 0 0
SMALL
GASTEIGER

@<TRIPOS>ATOM
      1 C         141.6499  143.9334  160.3643 C.3     1  UNL1        0.0546
      2 C         140.3425  144.4417  159.8328 C.3     1  UNL1        0.0180
      3 C         139.7172  143.3488  159.0177 C.3     1  UNL1        0.0310
      4 C         138.5228  142.9874  158.1854 C.3     1  UNL1        0.0939
      5 N         138.7054  141.5803  157.6987 N.am    1  UNL1       -0.2790
      6 C         137.7487  140.8158  156.8325 C.2     1  UNL1        0.2261
      7 C         136.4728  141.4586  156.3755 C.3     1  UNL1        0.0948
      8 O         138.0678  139.4084  156.4235 O.2     1  UNL1       -0.2749
      9 C         140.0128  141.0721  158.2302 C.3     1  UNL1        0.1020
     10 C         140.6381  142.1650  159.0454 C.3     1  UNL1        0.0902
     11 C         141.8325  142.5263  159.8776 C.3     1  UNL1        0.0261
     12 C         141.5590  140.9813  159.0731 C.2     1  UNL1        0.2267
     13 O         142.5586  140.7828  157.9724 O.2     1  UNL1       -0.2748
     14 N         141.4803  139.9960  160.2014 N.am    1  UNL1       -0.2750
     15 C         142.4012  138.8124  160.2291 C.3     1  UNL1        0.1000
     16 C         142.3225  137.8272  161.3575 C.3     1  UNL1        0.0670
     17 C         141.3229  138.0257  162.4581 C.ar    1  UNL1        0.0583
     18 N         141.2442  137.0405  163.5865 N.ar    1  UNL1       -0.2484
     19 C         140.2446  137.2390  164.6871 C.ar    1  UNL1        0.1023
     20 C         139.3237  138.4227  164.6594 C.ar    1  UNL1        0.0902
     21 C         139.4024  139.4079  163.5310 C.ar    1  UNL1        0.0040
     22 C         140.4020  139.2094  162.4304 C.ar    1  UNL1        0.0113
     23 C         140.4807  140.1946  161.3021 C.3     1  UNL1        0.1213
     24 C         138.3241  138.6213  165.7600 C.3     1  UNL1        0.4200
     25 F         137.3245  138.8198  166.8606 F       1  UNL1       -0.1658
     26 F         138.3886  140.1052  165.5510 F       1  UNL1       -0.1658
     27 F         138.2595  137.1373  165.9690 F       1  UNL1       -0.1658
     28 N         142.6066  144.6980  161.2305 N.3     1  UNL1       -0.2975
     29 H         143.3349  145.0611  160.6155 H       1  UNL1        0.1232
     30 C         142.8065  144.1918  163.7709 C.3     1  UNL1        0.1591
     31 C         143.5028  143.5041  164.9077 C.3     1  UNL1        0.1729
     32 O         144.6956  142.6348  164.6407 O.3     1  UNL1       -0.3511
     33 C         145.1922  142.4531  163.2369 C.3     1  UNL1        0.1437
     34 C         144.4958  143.1408  162.1002 C.3     1  UNL1        0.0503
     35 C         143.3030  144.0102  162.3672 C.3     1  UNL1        0.0865
     36 C         140.2335  144.4752  163.9939 C.3     1  UNL1        0.1742
     37 O         141.6136  145.0612  164.0379 O.3     1  UNL1       -0.3496
@<TRIPOS>BOND
     1    36    37    1
     2    37    30    1
     3    30    31    1
     4    31    32    1
     5    32    33    1
     6    33    34    1
     7    34    35    1
     8    35    28    1
     9     1    28    1
    10     1     2    1
    11     3     2    1
    12     3     4    1
    13     4     5    1
    14     5     6   am
    15     6     7    1
    16     6     8    2
    17     5     9    1
    18     9    10    1
    19    10    12    1
    20    12    13    2
    21    12    14   am
    22    14    15    1
    23    15    16    1
    24    16    17    1
    25    17    18   ar
    26    18    19   ar
    27    19    20   ar
    28    20    24    1
    29    24    25    1
    30    24    26    1
    31    24    27    1
    32    20    21   ar
    33    21    22   ar
    34    22    23    1
    35    10    11    1
    36    35    30    1
    37    11     1    1
    38    10     3    1
    39    23    14    1
    40    22    17   ar
    41    28    29    1
@<TRIPOS>MOLECULE
*****
 37 41 0 0 0
SMALL
GASTEIGER

@<TRIPOS>ATOM
      1 C         138.6880  141.9047  159.9526 C.3     1  UNL1        0.0546
      2 C         138.1636  140.9555  158.9162 C.3     1  UNL1        0.0180
      3 C         139.2821  140.0379  158.5198 C.3     1  UNL1        0.0310
      4 C         139.6493  138.8842  157.6344 C.3     1  UNL1        0.0939
      5 N         141.0919  138.5533  157.8785 N.am    1  UNL1       -0.2790
      6 C         141.8729  137.4644  157.2045 C.2     1  UNL1        0.2261
      7 C         141.2107  136.5890  156.1822 C.3     1  UNL1        0.0948
      8 O         143.3162  137.2509  157.5529 O.2     1  UNL1       -0.2749
      9 C         141.6162  139.5026  158.9148 C.3     1  UNL1        0.1020
     10 C         140.4977  140.4201  159.3112 C.3     1  UNL1        0.0902
     11 C         140.1305  141.5738  160.1967 C.3     1  UNL1        0.0261
     12 C         141.7133  140.8023  160.1026 C.2     1  UNL1        0.2267
     13 O         142.9075  141.3862  159.4077 O.2     1  UNL1       -0.2748
     14 N         141.7347  140.6005  161.5888 N.am    1  UNL1       -0.2750
     15 C         142.9503  140.9826  162.3802 C.3     1  UNL1        0.1000
     16 C         142.9716  140.7808  163.8664 C.3     1  UNL1        0.0670
     17 C         141.7774  140.1968  164.5612 C.ar    1  UNL1        0.0583
     18 N         141.7988  139.9950  166.0474 N.ar    1  UNL1       -0.2484
     19 C         140.6045  139.4110  166.7423 C.ar    1  UNL1        0.1023
     20 C         139.3889  139.0289  165.9508 C.ar    1  UNL1        0.0902
     21 C         139.3676  139.2307  164.4647 C.ar    1  UNL1        0.0040
     22 C         140.5618  139.8147  163.7698 C.ar    1  UNL1        0.0113
     23 C         140.5405  140.0165  162.2837 C.3     1  UNL1        0.1213
     24 C         138.1947  138.4449  166.6456 C.3     1  UNL1        0.4200
     25 F         137.0005  137.8609  167.3405 F       1  UNL1       -0.1658
     26 F         138.1009  137.3821  165.5913 F       1  UNL1       -0.1658
     27 F         138.2885  139.5076  167.7000 F       1  UNL1       -0.1658
     28 N         137.9069  142.9937  160.6266 N.3     1  UNL1       -0.2975
     29 H         138.1307  143.8614  160.1393 H       1  UNL1        0.1232
     30 C         138.7577  144.5259  162.5444 C.3     1  UNL1        0.1591
     31 C         138.9487  144.7898  164.0086 C.3     1  UNL1        0.1729
     32 O         138.4800  143.7854  165.0191 O.3     1  UNL1       -0.3511
     33 C         137.8201  142.5169  164.5655 C.3     1  UNL1        0.1437
     34 C         137.6291  142.2530  163.1013 C.3     1  UNL1        0.0503
     35 C         138.0979  143.2576  162.0908 C.3     1  UNL1        0.0865
     36 C         140.5817  145.3873  160.9070 C.3     1  UNL1        0.1742
     37 O         139.2264  145.5304  161.5339 O.3     1  UNL1       -0.3496
@<TRIPOS>BOND
     1    36    37    1
     2    37    30    1
     3    30    31    1
     4    31    32    1
     5    32    33    1
     6    33    34    1
     7    34    35    1
     8    35    28    1
     9     1    28    1
    10     1     2    1
    11     3     2    1
    12     3     4    1
    13     4     5    1
    14     5     6   am
    15     6     7    1
    16     6     8    2
    17     5     9    1
    18     9    10    1
    19    10    12    1
    20    12    13    2
    21    12    14   am
    22    14    15    1
    23    15    16    1
    24    16    17    1
    25    17    18   ar
    26    18    19   ar
    27    19    20   ar
    28    20    24    1
    29    24    25    1
    30    24    26    1
    31    24    27    1
    32    20    21   ar
    33    21    22   ar
    34    22    23    1
    35    10    11    1
    36    35    30    1
    37    11     1    1
    38    10     3    1
    39    23    14    1
    40    22    17   ar
    41    28    29    1
@<TRIPOS>MOLECULE
*****
 37 41 0 0 0
SMALL
GASTEIGER

@<TRIPOS>ATOM
      1 C         138.1476  142.0495  160.9492 C.3     1  UNL1        0.0546
      2 C         138.3702  141.5593  159.5492 C.3     1  UNL1        0.0180
      3 C         139.2716  142.5360  158.8539 C.3     1  UNL1        0.0310
      4 C         139.9662  142.8368  157.5589 C.3     1  UNL1        0.0939
      5 N         140.7300  144.1165  157.7289 N.am    1  UNL1       -0.2790
      6 C         141.5691  144.7882  156.6825 C.2     1  UNL1        0.2261
      7 C         141.6990  144.1766  155.3190 C.3     1  UNL1        0.0948
      8 O         142.2783  146.0713  156.9997 O.2     1  UNL1       -0.2749
      9 C         140.5074  144.6067  159.1289 C.3     1  UNL1        0.1020
     10 C         139.6060  143.6300  159.8242 C.3     1  UNL1        0.0902
     11 C         138.9114  143.3292  161.1192 C.3     1  UNL1        0.0261
     12 C         139.9405  144.7238  160.7946 C.2     1  UNL1        0.2267
     13 O         139.2625  146.0573  160.6844 O.2     1  UNL1       -0.2748
     14 N         140.9530  144.4842  161.8752 N.am    1  UNL1       -0.2750
     15 C         141.2874  145.5781  162.8455 C.3     1  UNL1        0.1000
     16 C         142.2998  145.3384  163.9260 C.3     1  UNL1        0.0670
     17 C         142.9778  144.0049  164.0362 C.ar    1  UNL1        0.0583
     18 N         143.9903  143.7653  165.1167 N.ar    1  UNL1       -0.2484
     19 C         144.6682  142.4318  165.2269 C.ar    1  UNL1        0.1023
     20 C         144.3337  141.3379  164.2565 C.ar    1  UNL1        0.0902
     21 C         143.3213  141.5776  163.1760 C.ar    1  UNL1        0.0040
     22 C         142.6433  142.9111  163.0658 C.ar    1  UNL1        0.0113
     23 C         141.6309  143.1507  161.9853 C.3     1  UNL1        0.1213
     24 C         145.0117  140.0044  164.3667 C.3     1  UNL1        0.4200
     25 F         145.6897  138.6709  164.4768 F       1  UNL1       -0.1658
     26 F         143.6737  139.3279  164.4123 F       1  UNL1       -0.1658
     27 F         146.3497  140.6809  164.3211 F       1  UNL1       -0.1658
     28 N         137.3085  141.3778  161.9956 N.3     1  UNL1       -0.2975
     29 H         137.0204  142.1032  162.6523 H       1  UNL1        0.1232
     30 C         138.2778  140.4962  164.2391 C.3     1  UNL1        0.1591
     31 C         138.8515  139.3762  165.0554 C.3     1  UNL1        0.1729
     32 O         139.0298  138.0178  164.4447 O.3     1  UNL1       -0.3511
     33 C         138.6342  137.7794  163.0175 C.3     1  UNL1        0.1437
     34 C         138.0605  138.8994  162.2011 C.3     1  UNL1        0.0503
     35 C         137.8822  140.2578  162.8120 C.3     1  UNL1        0.0865
     36 C         139.2642  142.7958  164.9384 C.3     1  UNL1        0.1742
     37 O         138.0995  141.8545  164.8499 O.3     1  UNL1       -0.3496
@<TRIPOS>BOND
     1    36    37    1
     2    37    30    1
     3    30    31    1
     4    31    32    1
     5    32    33    1
     6    33    34    1
     7    34    35    1
     8    35    28    1
     9     1    28    1
    10     1     2    1
    11     3     2    1
    12     3     4    1
    13     4     5    1
    14     5     6   am
    15     6     7    1
    16     6     8    2
    17     5     9    1
    18     9    10    1
    19    10    12    1
    20    12    13    2
    21    12    14   am
    22    14    15    1
    23    15    16    1
    24    16    17    1
    25    17    18   ar
    26    18    19   ar
    27    19    20   ar
    28    20    24    1
    29    24    25    1
    30    24    26    1
    31    24    27    1
    32    20    21   ar
    33    21    22   ar
    34    22    23    1
    35    10    11    1
    36    35    30    1
    37    11     1    1
    38    10     3    1
    39    23    14    1
    40    22    17   ar
    41    28    29    1
