@<TRIPOS>MOLECULE
*****
 28 30 0 0 0
SMALL
GASTEIGER

@<TRIPOS>ATOM
      1 C         142.4575  140.2119  167.3252 C.3     1  UNL1        0.0721
      2 C         143.2921  144.1521  164.2816 C.3     1  UNL1        0.0061
      3 C         142.1845  143.2798  164.7938 C.3     1  UNL1        0.0380
      4 C         142.5970  142.1951  165.7442 C.3     1  UNL1        0.0764
      5 N         141.7377  141.1702  166.4234 N.3     1  UNL1       -0.2721
      6 C         140.2537  140.9770  166.3200 C.3     1  UNL1        0.0768
      7 C         139.2627  141.7610  165.5118 C.3     1  UNL1        0.0433
      8 C         139.5106  142.9317  164.6074 C.ar    1  UNL1       -0.0247
      9 C         138.2371  143.4237  163.9862 C.ar    1  UNL1       -0.0037
     10 C         138.2639  144.5916  163.0454 C.ar    1  UNL1        0.0111
     11 C         139.5643  145.2676  162.7258 C.ar    1  UNL1        0.0573
     12 CL        139.5910  146.4356  161.7850 Cl      1  UNL1       -0.0823
     13 C         140.8378  144.7756  163.3471 C.ar    1  UNL1        0.0069
     14 C         140.8110  143.6077  164.2879 C.ar    1  UNL1       -0.0242
     15 C         142.9899  138.9214  166.7764 C.3     1  UNL1        0.0173
     16 C         142.9324  138.6531  165.3018 C.3     1  UNL1        0.0015
     17 C         144.0382  139.1323  164.4086 C.3     1  UNL1        0.0017
     18 C         143.9807  138.8639  162.9339 C.3     1  UNL1        0.0196
     19 C         142.8174  138.1164  162.3524 C.3     1  UNL1        0.0730
     20 C         141.7117  137.6372  163.2456 C.3     1  UNL1        0.0196
     21 C         141.7692  137.9056  164.7202 C.3     1  UNL1        0.0017
     22 N         142.7600  137.8480  160.8777 N.am    1  UNL1       -0.2904
     23 C         141.9523  138.7416  159.9837 C.2     1  UNL1        0.3040
     24 O         141.2021  139.9035  160.5644 O.2     1  UNL1       -0.2526
     25 N         141.8948  138.4733  158.5090 N.am    1  UNL1       -0.2607
     26 C         141.0871  139.3668  157.6150 C.3     1  UNL1        0.1165
     27 C         142.6450  137.3114  157.9283 C.3     1  UNL1        0.1165
     28 H         143.2523  137.0854  160.4966 H       1  UNL1        0.1509
@<TRIPOS>BOND
     1     3     2    1
     2     3     4    1
     3     4     5    1
     4     5     1    1
     5     1    15    1
     6    16    15    1
     7    16    17    1
     8    17    18    1
     9    18    19    1
    10    19    22    1
    11    22    23   am
    12    23    24    2
    13    23    25   am
    14    25    26    1
    15    25    27    1
    16    19    20    1
    17    20    21    1
    18     5     6    1
    19     6     7    1
    20     7     8    1
    21     8     9   ar
    22     9    10   ar
    23    10    11   ar
    24    11    12    1
    25    11    13   ar
    26    13    14   ar
    27    14     3    1
    28    21    16    1
    29    14     8   ar
    30    22    28    1
@<TRIPOS>MOLECULE
*****
 28 30 0 0 0
SMALL
GASTEIGER

@<TRIPOS>ATOM
      1 C         138.6646  138.6624  163.1982 C.3     1  UNL1        0.0721
      2 C         140.8868  142.8116  165.0235 C.3     1  UNL1        0.0061
      3 C         140.1656  141.5745  165.4701 C.3     1  UNL1        0.0380
      4 C         139.7134  140.6539  164.3756 C.3     1  UNL1        0.0764
      5 N         138.9758  139.3531  164.4928 N.3     1  UNL1       -0.2721
      6 C         138.5082  138.6515  165.7335 C.3     1  UNL1        0.0768
      7 C         138.6628  139.0777  167.1634 C.3     1  UNL1        0.0433
      8 C         139.3231  140.3105  167.7058 C.ar    1  UNL1       -0.0247
      9 C         139.2582  140.3530  169.2037 C.ar    1  UNL1       -0.0037
     10 C         139.8621  141.5068  169.9481 C.ar    1  UNL1        0.0111
     11 C         140.5309  142.6180  169.1945 C.ar    1  UNL1        0.0573
     12 CL        141.1348  143.7718  169.9390 Cl      1  UNL1       -0.0823
     13 C         140.5958  142.5755  167.6965 C.ar    1  UNL1        0.0069
     14 C         139.9919  141.4217  166.9522 C.ar    1  UNL1       -0.0242
     15 C         139.6266  137.6601  162.6327 C.3     1  UNL1        0.0173
     16 C         140.5589  138.0566  161.5266 C.3     1  UNL1        0.0015
     17 C         142.0357  137.8407  161.6768 C.3     1  UNL1        0.0017
     18 C         142.9680  138.2372  160.5707 C.3     1  UNL1        0.0196
     19 C         142.4236  138.8496  159.3143 C.3     1  UNL1        0.0730
     20 C         140.9468  139.0656  159.1641 C.3     1  UNL1        0.0196
     21 C         140.0145  138.6690  160.2702 C.3     1  UNL1        0.0017
     22 N         143.3559  139.2462  158.2081 N.am    1  UNL1       -0.2904
     23 C         144.0877  140.5538  158.2767 C.2     1  UNL1        0.3040
     24 O         143.8872  141.4648  159.4513 O.2     1  UNL1       -0.2526
     25 N         145.0200  140.9503  157.1705 N.am    1  UNL1       -0.2607
     26 C         145.7519  142.2578  157.2390 C.3     1  UNL1        0.1165
     27 C         145.2205  140.0392  155.9958 C.3     1  UNL1        0.1165
     28 H         143.4875  138.6482  157.4372 H       1  UNL1        0.1509
@<TRIPOS>BOND
     1     3     2    1
     2     3     4    1
     3     4     5    1
     4     5     1    1
     5     1    15    1
     6    16    15    1
     7    16    17    1
     8    17    18    1
     9    18    19    1
    10    19    22    1
    11    22    23   am
    12    23    24    2
    13    23    25   am
    14    25    26    1
    15    25    27    1
    16    19    20    1
    17    20    21    1
    18     5     6    1
    19     6     7    1
    20     7     8    1
    21     8     9   ar
    22     9    10   ar
    23    10    11   ar
    24    11    12    1
    25    11    13   ar
    26    13    14   ar
    27    14     3    1
    28    21    16    1
    29    14     8   ar
    30    22    28    1
@<TRIPOS>MOLECULE
*****
 28 30 0 0 0
SMALL
GASTEIGER

@<TRIPOS>ATOM
      1 C         144.3396  142.5289  164.7809 C.3     1  UNL1        0.0721
      2 C         140.3779  141.8973  167.8455 C.3     1  UNL1        0.0061
      3 C         141.0500  141.2797  166.6551 C.3     1  UNL1        0.0380
      4 C         142.2833  141.9807  166.1677 C.3     1  UNL1        0.0764
      5 N         143.1711  141.6179  165.0144 N.3     1  UNL1       -0.2721
      6 C         143.0449  140.4645  164.0636 C.3     1  UNL1        0.0768
      7 C         141.9997  139.3892  164.0315 C.3     1  UNL1        0.0433
      8 C         140.8225  139.2014  164.9421 C.ar    1  UNL1       -0.0247
      9 C         140.0219  137.9918  164.5605 C.ar    1  UNL1       -0.0037
     10 C         138.7986  137.6235  165.3465 C.ar    1  UNL1        0.0111
     11 C         138.3759  138.4649  166.5142 C.ar    1  UNL1        0.0573
     12 CL        137.1526  138.0966  167.3002 Cl      1  UNL1       -0.0823
     13 C         139.1766  139.6746  166.8958 C.ar    1  UNL1        0.0069
     14 C         140.3998  140.0428  166.1097 C.ar    1  UNL1       -0.0242
     15 C         144.1356  143.8520  164.1043 C.3     1  UNL1        0.0173
     16 C         143.3354  143.9314  162.8380 C.3     1  UNL1        0.0015
     17 C         142.0827  144.7553  162.7929 C.3     1  UNL1        0.0017
     18 C         141.2825  144.8347  161.5266 C.3     1  UNL1        0.0196
     19 C         141.7350  144.0902  160.3055 C.3     1  UNL1        0.0730
     20 C         142.9876  143.2663  160.3507 C.3     1  UNL1        0.0196
     21 C         143.7878  143.1869  161.6170 C.3     1  UNL1        0.0017
     22 N         140.9348  144.1696  159.0393 N.am    1  UNL1       -0.2904
     23 C         141.2822  145.1891  157.9952 C.2     1  UNL1        0.3040
     24 O         142.4297  146.1291  158.2174 O.2     1  UNL1       -0.2526
     25 N         140.4820  145.2685  156.7290 N.am    1  UNL1       -0.2607
     26 C         140.8293  146.2879  155.6849 C.3     1  UNL1        0.1165
     27 C         139.3344  144.3283  156.5068 C.3     1  UNL1        0.1165
     28 H         140.1816  143.5526  158.8934 H       1  UNL1        0.1509
@<TRIPOS>BOND
     1     3     2    1
     2     3     4    1
     3     4     5    1
     4     5     1    1
     5     1    15    1
     6    16    15    1
     7    16    17    1
     8    17    18    1
     9    18    19    1
    10    19    22    1
    11    22    23   am
    12    23    24    2
    13    23    25   am
    14    25    26    1
    15    25    27    1
    16    19    20    1
    17    20    21    1
    18     5     6    1
    19     6     7    1
    20     7     8    1
    21     8     9   ar
    22     9    10   ar
    23    10    11   ar
    24    11    12    1
    25    11    13   ar
    26    13    14   ar
    27    14     3    1
    28    21    16    1
    29    14     8   ar
    30    22    28    1
@<TRIPOS>MOLECULE
*****
 28 30 0 0 0
SMALL
GASTEIGER

@<TRIPOS>ATOM
      1 C         140.3302  145.1538  162.5156 C.3     1  UNL1        0.0721
      2 C         137.4630  141.0131  162.8615 C.3     1  UNL1        0.0061
      3 C         138.4946  141.7922  163.6224 C.3     1  UNL1        0.0380
      4 C         139.0077  143.0278  162.9443 C.3     1  UNL1        0.0764
      5 N         140.0296  144.0091  163.4371 N.3     1  UNL1       -0.2721
      6 C         140.7907  143.9971  164.7297 C.3     1  UNL1        0.0768
      7 C         140.7178  143.0008  165.8486 C.3     1  UNL1        0.0433
      8 C         139.8659  141.7704  165.9515 C.ar    1  UNL1       -0.0247
      9 C         140.1004  141.0480  167.2449 C.ar    1  UNL1       -0.0037
     10 C         139.3454  139.7878  167.5477 C.ar    1  UNL1        0.0111
     11 C         138.3559  139.2499  166.5569 C.ar    1  UNL1        0.0573
     12 CL        137.6009  137.9896  166.8597 Cl      1  UNL1       -0.0823
     13 C         138.1215  139.9723  165.2634 C.ar    1  UNL1        0.0069
     14 C         138.8765  141.2325  164.9607 C.ar    1  UNL1       -0.0242
     15 C         140.1426  144.9946  161.0359 C.3     1  UNL1        0.0173
     16 C         141.2637  144.4673  160.1902 C.3     1  UNL1        0.0015
     17 C         141.3788  144.8828  158.7535 C.3     1  UNL1        0.0017
     18 C         142.4999  144.3555  157.9078 C.3     1  UNL1        0.0196
     19 C         143.5059  143.4128  158.4989 C.3     1  UNL1        0.0730
     20 C         143.3907  142.9973  159.9356 C.3     1  UNL1        0.0196
     21 C         142.2697  143.5246  160.7812 C.3     1  UNL1        0.0017
     22 N         144.6269  142.8855  157.6532 N.am    1  UNL1       -0.2904
     23 C         144.4746  141.5762  156.9372 C.2     1  UNL1        0.3040
     24 O         143.2011  140.7942  157.0670 O.2     1  UNL1       -0.2526
     25 N         145.5956  141.0489  156.0916 N.am    1  UNL1       -0.2607
     26 C         145.4433  139.7396  155.3756 C.3     1  UNL1        0.1165
     27 C         146.8691  141.8309  155.9618 C.3     1  UNL1        0.1165
     28 H         145.4627  143.3987  157.5680 H       1  UNL1        0.1509
@<TRIPOS>BOND
     1     3     2    1
     2     3     4    1
     3     4     5    1
     4     5     1    1
     5     1    15    1
     6    16    15    1
     7    16    17    1
     8    17    18    1
     9    18    19    1
    10    19    22    1
    11    22    23   am
    12    23    24    2
    13    23    25   am
    14    25    26    1
    15    25    27    1
    16    19    20    1
    17    20    21    1
    18     5     6    1
    19     6     7    1
    20     7     8    1
    21     8     9   ar
    22     9    10   ar
    23    10    11   ar
    24    11    12    1
    25    11    13   ar
    26    13    14   ar
    27    14     3    1
    28    21    16    1
    29    14     8   ar
    30    22    28    1
@<TRIPOS>MOLECULE
*****
 28 30 0 0 0
SMALL
GASTEIGER

@<TRIPOS>ATOM
      1 C         138.7560  139.3477  166.7797 C.3     1  UNL1        0.0721
      2 C         139.5445  143.3217  163.7678 C.3     1  UNL1        0.0061
      3 C         140.2377  142.4666  164.7868 C.3     1  UNL1        0.0380
      4 C         139.4167  141.3554  165.3708 C.3     1  UNL1        0.0764
      5 N         139.8156  140.3390  166.3993 N.3     1  UNL1       -0.2721
      6 C         141.1338  140.1827  167.0978 C.3     1  UNL1        0.0768
      7 C         142.3788  141.0043  166.9402 C.3     1  UNL1        0.0433
      8 C         142.6132  142.1851  166.0453 C.ar    1  UNL1       -0.0247
      9 C         144.0072  142.7182  166.1951 C.ar    1  UNL1       -0.0037
     10 C         144.4483  143.9020  165.3865 C.ar    1  UNL1        0.0111
     11 C         143.4955  144.5528  164.4281 C.ar    1  UNL1        0.0573
     12 CL        143.9367  145.7368  163.6195 Cl      1  UNL1       -0.0823
     13 C         142.1014  144.0198  164.2783 C.ar    1  UNL1        0.0069
     14 C         141.6603  142.8359  165.0869 C.ar    1  UNL1       -0.0242
     15 C         138.4158  138.2200  165.8509 C.3     1  UNL1        0.0173
     16 C         139.1114  138.1029  164.5271 C.3     1  UNL1        0.0015
     17 C         140.4709  137.4741  164.4473 C.3     1  UNL1        0.0017
     18 C         141.1665  137.3570  163.1235 C.3     1  UNL1        0.0196
     19 C         140.5025  137.8686  161.8795 C.3     1  UNL1        0.0730
     20 C         139.1430  138.4973  161.9594 C.3     1  UNL1        0.0196
     21 C         138.4474  138.6144  163.2832 C.3     1  UNL1        0.0017
     22 N         141.1980  137.7514  160.5557 N.am    1  UNL1       -0.2904
     23 C         142.0019  138.9020  160.0264 C.2     1  UNL1        0.3040
     24 O         142.1103  140.1696  160.8210 O.2     1  UNL1       -0.2526
     25 N         142.6975  138.7848  158.7026 N.am    1  UNL1       -0.2607
     26 C         143.5013  139.9353  158.1733 C.3     1  UNL1        0.1165
     27 C         142.5891  137.5171  157.9080 C.3     1  UNL1        0.1165
     28 H         141.1269  136.9194  160.0342 H       1  UNL1        0.1509
@<TRIPOS>BOND
     1     3     2    1
     2     3     4    1
     3     4     5    1
     4     5     1    1
     5     1    15    1
     6    16    15    1
     7    16    17    1
     8    17    18    1
     9    18    19    1
    10    19    22    1
    11    22    23   am
    12    23    24    2
    13    23    25   am
    14    25    26    1
    15    25    27    1
    16    19    20    1
    17    20    21    1
    18     5     6    1
    19     6     7    1
    20     7     8    1
    21     8     9   ar
    22     9    10   ar
    23    10    11   ar
    24    11    12    1
    25    11    13   ar
    26    13    14   ar
    27    14     3    1
    28    21    16    1
    29    14     8   ar
    30    22    28    1
@<TRIPOS>MOLECULE
*****
 28 30 0 0 0
SMALL
GASTEIGER

@<TRIPOS>ATOM
      1 C         145.4204  140.7800  164.0375 C.3     1  UNL1        0.0721
      2 C         141.5399  141.5300  167.1784 C.3     1  UNL1        0.0061
      3 C         141.9916  140.6305  166.0662 C.3     1  UNL1        0.0380
      4 C         143.3434  140.9345  165.4916 C.3     1  UNL1        0.0764
      5 N         144.0692  140.2289  164.3846 N.3     1  UNL1       -0.2721
      6 C         143.6224  139.0453  163.5787 C.3     1  UNL1        0.0768
      7 C         142.3395  138.2748  163.6809 C.3     1  UNL1        0.0433
      8 C         141.1865  138.4976  164.6142 C.ar    1  UNL1       -0.0247
      9 C         140.0937  137.4962  164.3840 C.ar    1  UNL1       -0.0037
     10 C         138.8461  137.5432  165.2154 C.ar    1  UNL1        0.0111
     11 C         138.6913  138.5916  166.2769 C.ar    1  UNL1        0.0573
     12 CL        137.4436  138.6386  167.1083 Cl      1  UNL1       -0.0823
     13 C         139.7840  139.5930  166.5071 C.ar    1  UNL1        0.0069
     14 C         141.0316  139.5460  165.6757 C.ar    1  UNL1       -0.0242
     15 C         145.5397  142.1457  163.4287 C.3     1  UNL1        0.0173
     16 C         144.5733  142.5807  162.3672 C.3     1  UNL1        0.0015
     17 C         144.6618  141.9978  160.9879 C.3     1  UNL1        0.0017
     18 C         143.6953  142.4328  159.9264 C.3     1  UNL1        0.0196
     19 C         142.6404  143.4507  160.2443 C.3     1  UNL1        0.0730
     20 C         142.5519  144.0336  161.6235 C.3     1  UNL1        0.0196
     21 C         143.5183  143.5986  162.6850 C.3     1  UNL1        0.0017
     22 N         141.6739  143.8857  159.1828 N.am    1  UNL1       -0.2904
     23 C         140.4412  143.0747  158.9130 C.2     1  UNL1        0.3040
     24 O         140.1749  141.8288  159.7046 O.2     1  UNL1       -0.2526
     25 N         139.4747  143.5098  157.8515 N.am    1  UNL1       -0.2607
     26 C         138.2420  142.6988  157.5816 C.3     1  UNL1        0.1165
     27 C         139.7410  144.7557  157.0598 C.3     1  UNL1        0.1165
     28 H         141.8487  144.7035  158.6632 H       1  UNL1        0.1509
@<TRIPOS>BOND
     1     3     2    1
     2     3     4    1
     3     4     5    1
     4     5     1    1
     5     1    15    1
     6    16    15    1
     7    16    17    1
     8    17    18    1
     9    18    19    1
    10    19    22    1
    11    22    23   am
    12    23    24    2
    13    23    25   am
    14    25    26    1
    15    25    27    1
    16    19    20    1
    17    20    21    1
    18     5     6    1
    19     6     7    1
    20     7     8    1
    21     8     9   ar
    22     9    10   ar
    23    10    11   ar
    24    11    12    1
    25    11    13   ar
    26    13    14   ar
    27    14     3    1
    28    21    16    1
    29    14     8   ar
    30    22    28    1
@<TRIPOS>MOLECULE
*****
 28 30 0 0 0
SMALL
GASTEIGER

@<TRIPOS>ATOM
      1 C         138.8671  137.7012  164.1384 C.3     1  UNL1        0.0721
      2 C         143.3049  139.5829  165.6386 C.3     1  UNL1        0.0061
      3 C         141.8683  139.4891  166.0597 C.3     1  UNL1        0.0380
      4 C         140.9626  138.7464  165.1225 C.3     1  UNL1        0.0764
      5 N         139.4923  138.4816  165.2564 N.3     1  UNL1       -0.2721
      6 C         138.5644  138.8940  166.3606 C.3     1  UNL1        0.0768
      7 C         138.8779  139.6731  167.6034 C.3     1  UNL1        0.0433
      8 C         140.1965  140.2322  168.0492 C.ar    1  UNL1       -0.0247
      9 C         140.0724  140.9490  169.3610 C.ar    1  UNL1       -0.0037
     10 C         141.2793  141.5839  169.9857 C.ar    1  UNL1        0.0111
     11 C         142.6102  141.5020  169.2986 C.ar    1  UNL1        0.0573
     12 CL        143.8171  142.1370  169.9234 Cl      1  UNL1       -0.0823
     13 C         142.7342  140.7852  167.9869 C.ar    1  UNL1        0.0069
     14 C         141.5273  140.1503  167.3622 C.ar    1  UNL1       -0.0242
     15 C         139.5624  137.6013  162.8131 C.3     1  UNL1        0.0173
     16 C         139.1968  138.5399  161.7017 C.3     1  UNL1        0.0015
     17 C         140.2713  139.1492  160.8506 C.3     1  UNL1        0.0017
     18 C         139.9058  140.0879  159.7392 C.3     1  UNL1        0.0196
     19 C         138.4657  140.4173  159.4788 C.3     1  UNL1        0.0730
     20 C         137.3912  139.8081  160.3299 C.3     1  UNL1        0.0196
     21 C         137.7568  138.8694  161.4413 C.3     1  UNL1        0.0017
     22 N         138.1001  141.3560  158.3674 N.am    1  UNL1       -0.2904
     23 C         138.0106  140.8507  156.9579 C.2     1  UNL1        0.3040
     24 O         138.2867  139.4068  156.6598 O.2     1  UNL1       -0.2526
     25 N         137.6450  141.7894  155.8465 N.am    1  UNL1       -0.2607
     26 C         137.5555  141.2842  154.4370 C.3     1  UNL1        0.1165
     27 C         137.3689  143.2334  156.1446 C.3     1  UNL1        0.1165
     28 H         137.9189  142.3037  158.5631 H       1  UNL1        0.1509
@<TRIPOS>BOND
     1     3     2    1
     2     3     4    1
     3     4     5    1
     4     5     1    1
     5     1    15    1
     6    16    15    1
     7    16    17    1
     8    17    18    1
     9    18    19    1
    10    19    22    1
    11    22    23   am
    12    23    24    2
    13    23    25   am
    14    25    26    1
    15    25    27    1
    16    19    20    1
    17    20    21    1
    18     5     6    1
    19     6     7    1
    20     7     8    1
    21     8     9   ar
    22     9    10   ar
    23    10    11   ar
    24    11    12    1
    25    11    13   ar
    26    13    14   ar
    27    14     3    1
    28    21    16    1
    29    14     8   ar
    30    22    28    1
@<TRIPOS>MOLECULE
*****
 28 30 0 0 0
SMALL
GASTEIGER

@<TRIPOS>ATOM
      1 C         139.3259  137.6494  162.8884 C.3     1  UNL1        0.0721
      2 C         143.4817  138.6609  165.5703 C.3     1  UNL1        0.0061
      3 C         141.9906  138.8182  165.6139 C.3     1  UNL1        0.0380
      4 C         141.2440  138.2744  164.4321 C.3     1  UNL1        0.0764
      5 N         139.7656  138.2766  164.1781 N.3     1  UNL1       -0.2721
      6 C         138.6688  138.8232  165.0432 C.3     1  UNL1        0.0768
      7 C         138.7796  139.5024  166.3760 C.3     1  UNL1        0.0433
      8 C         140.0144  139.8030  167.1729 C.ar    1  UNL1       -0.0247
      9 C         139.6806  140.4984  168.4593 C.ar    1  UNL1       -0.0037
     10 C         140.7760  140.8894  169.4065 C.ar    1  UNL1        0.0111
     11 C         142.2050  140.5849  169.0674 C.ar    1  UNL1        0.0573
     12 CL        143.3004  140.9758  170.0147 Cl      1  UNL1       -0.0823
     13 C         142.5388  139.8894  167.7810 C.ar    1  UNL1        0.0069
     14 C         141.4434  139.4985  166.8337 C.ar    1  UNL1       -0.0242
     15 C         138.1904  138.2478  162.1122 C.3     1  UNL1        0.0173
     16 C         138.4408  139.3995  161.1845 C.3     1  UNL1        0.0015
     17 C         139.1167  139.1670  159.8657 C.3     1  UNL1        0.0017
     18 C         139.3671  140.3188  158.9379 C.3     1  UNL1        0.0196
     19 C         138.9416  141.7031  159.3290 C.3     1  UNL1        0.0730
     20 C         138.2657  141.9355  160.6477 C.3     1  UNL1        0.0196
     21 C         138.0153  140.7837  161.5755 C.3     1  UNL1        0.0017
     22 N         139.1919  142.8548  158.4012 N.am    1  UNL1       -0.2904
     23 C         140.4446  143.6688  158.5372 C.2     1  UNL1        0.3040
     24 O         141.4468  143.3309  159.6008 O.2     1  UNL1       -0.2526
     25 N         140.6950  144.8206  157.6094 N.am    1  UNL1       -0.2607
     26 C         141.9476  145.6345  157.7453 C.3     1  UNL1        0.1165
     27 C         139.6927  145.1584  156.5457 C.3     1  UNL1        0.1165
     28 H         138.5342  143.0766  157.7031 H       1  UNL1        0.1509
@<TRIPOS>BOND
     1     3     2    1
     2     3     4    1
     3     4     5    1
     4     5     1    1
     5     1    15    1
     6    16    15    1
     7    16    17    1
     8    17    18    1
     9    18    19    1
    10    19    22    1
    11    22    23   am
    12    23    24    2
    13    23    25   am
    14    25    26    1
    15    25    27    1
    16    19    20    1
    17    20    21    1
    18     5     6    1
    19     6     7    1
    20     7     8    1
    21     8     9   ar
    22     9    10   ar
    23    10    11   ar
    24    11    12    1
    25    11    13   ar
    26    13    14   ar
    27    14     3    1
    28    21    16    1
    29    14     8   ar
    30    22    28    1
@<TRIPOS>MOLECULE
*****
 28 30 0 0 0
SMALL
GASTEIGER

@<TRIPOS>ATOM
      1 C         141.1474  136.9488  163.6256 C.3     1  UNL1        0.0721
      2 C         138.0100  139.5030  166.6454 C.3     1  UNL1        0.0061
      3 C         139.4706  139.2472  166.4185 C.3     1  UNL1        0.0380
      4 C         139.8012  138.3285  165.2798 C.3     1  UNL1        0.0764
      5 N         141.1503  137.8797  164.8017 N.3     1  UNL1       -0.2721
      6 C         142.5019  138.2387  165.3443 C.3     1  UNL1        0.0768
      7 C         142.8382  139.1352  166.4989 C.3     1  UNL1        0.0433
      8 C         141.9060  139.8942  167.3962 C.ar    1  UNL1       -0.0247
      9 C         142.6578  140.6755  168.4326 C.ar    1  UNL1       -0.0037
     10 C         141.9110  141.5066  169.4333 C.ar    1  UNL1        0.0111
     11 C         140.4122  141.5564  169.3975 C.ar    1  UNL1        0.0573
     12 CL        139.6653  142.3876  170.3982 Cl      1  UNL1       -0.0823
     13 C         139.6604  140.7751  168.3611 C.ar    1  UNL1        0.0069
     14 C         140.4072  139.9440  167.3604 C.ar    1  UNL1       -0.0242
     15 C         141.7512  137.3838  162.3232 C.3     1  UNL1        0.0173
     16 C         141.5104  138.7733  161.8119 C.3     1  UNL1        0.0015
     17 C         140.1236  139.2044  161.4366 C.3     1  UNL1        0.0017
     18 C         139.8827  140.5939  160.9253 C.3     1  UNL1        0.0196
     19 C         141.0288  141.5521  160.7893 C.3     1  UNL1        0.0730
     20 C         142.4155  141.1209  161.1646 C.3     1  UNL1        0.0196
     21 C         142.6564  139.7315  161.6759 C.3     1  UNL1        0.0017
     22 N         140.7880  142.9416  160.2779 N.am    1  UNL1       -0.2904
     23 C         140.3363  144.0192  161.2187 C.2     1  UNL1        0.3040
     24 O         140.1255  143.7073  162.6706 O.2     1  UNL1       -0.2526
     25 N         140.0955  145.4086  160.7073 N.am    1  UNL1       -0.2607
     26 C         139.6439  146.4862  161.6480 C.3     1  UNL1        0.1165
     27 C         140.3064  145.7205  159.2553 C.3     1  UNL1        0.1165
     28 H         140.9264  143.1463  159.3249 H       1  UNL1        0.1509
@<TRIPOS>BOND
     1     3     2    1
     2     3     4    1
     3     4     5    1
     4     5     1    1
     5     1    15    1
     6    16    15    1
     7    16    17    1
     8    17    18    1
     9    18    19    1
    10    19    22    1
    11    22    23   am
    12    23    24    2
    13    23    25   am
    14    25    26    1
    15    25    27    1
    16    19    20    1
    17    20    21    1
    18     5     6    1
    19     6     7    1
    20     7     8    1
    21     8     9   ar
    22     9    10   ar
    23    10    11   ar
    24    11    12    1
    25    11    13   ar
    26    13    14   ar
    27    14     3    1
    28    21    16    1
    29    14     8   ar
    30    22    28    1
