@<TRIPOS>MOLECULE
*****
 33 35 0 0 0
SMALL
GASTEIGER

@<TRIPOS>ATOM
      1 C         144.8857  141.9133  162.2894 C.3     1  UNL1        0.0616
      2 C         143.2979  141.9538  166.4997 C.ar    1  UNL1        0.0000
      3 C         144.0997  143.1142  165.9894 C.ar    1  UNL1       -0.0003
      4 C         144.6290  143.1007  164.5859 C.ar    1  UNL1       -0.0042
      5 C         144.3565  141.9268  163.6928 C.ar    1  UNL1       -0.0194
      6 C         143.5547  140.7663  164.2033 C.ar    1  UNL1       -0.0042
      7 C         143.0254  140.7798  165.6067 C.ar    1  UNL1       -0.0003
      8 C         140.8934  141.3904  169.6063 C.ar    1  UNL1        0.1057
      9 C         141.7100  141.9942  170.7101 C.ar    1  UNL1        0.0183
     10 C         143.0560  142.5846  170.4104 C.ar    1  UNL1        0.0013
     11 C         143.5853  142.5711  169.0070 C.ar    1  UNL1        0.0001
     12 C         142.7686  141.9673  167.9032 C.ar    1  UNL1        0.0013
     13 C         141.4227  141.3769  168.2029 C.ar    1  UNL1        0.0183
     14 C         138.2014  140.2096  170.2056 C.3     1  UNL1        0.1816
     15 S         139.5474  140.8000  169.9059 S.O2    1  UNL1        0.0104
     16 O         139.9145  139.5696  169.1305 O.2     1  UNL1       -0.1686
     17 O         139.1803  142.0305  170.6813 O.2     1  UNL1       -0.1686
     18 C         144.0152  142.3667  161.1552 C.3     1  UNL1        0.1684
     19 N         142.5780  142.7158  161.4059 N.am    1  UNL1       -0.2925
     20 C         142.2196  144.0597  161.9676 C.2     1  UNL1        0.2356
     21 O         143.2983  145.0545  162.2785 O.2     1  UNL1       -0.2737
     22 H         141.8701  142.0628  161.2018 H       1  UNL1        0.1504
     23 C         140.7825  144.4088  162.2183 C.3     1  UNL1        0.1134
     24 N         141.1534  145.5033  161.2620 N.3     1  UNL1       -0.3163
     25 C         140.9108  143.1930  163.0875 C.3     1  UNL1        0.0552
     26 C         139.7307  142.7065  163.8754 C.3     1  UNL1        0.1440
     27 O         138.4224  143.4357  163.7939 O.3     1  UNL1       -0.3537
     28 C         138.2941  144.6514  162.9247 C.3     1  UNL1        0.1440
     29 C         139.4742  145.1380  162.1368 C.3     1  UNL1        0.0552
     30 H         142.1311  145.4004  160.9901 H       1  UNL1        0.1192
     31 H         141.0193  146.4084  161.7126 H       1  UNL1        0.1192
     32 C         144.5817  142.4712  159.7702 C.1     1  UNL1        0.0927
     33 N         145.1483  142.5756  158.3852 N.1     1  UNL1       -0.1942
@<TRIPOS>BOND
     1    14    15    1
     2    15    16    2
     3    15    17    2
     4    15     8    1
     5     8     9   ar
     6     9    10   ar
     7    10    11   ar
     8    11    12   ar
     9    12     2    1
    10     2     3   ar
    11     3     4   ar
    12     4     5   ar
    13     5     1    1
    14    18     1    1
    15    18    32    1
    16    32    33    3
    17    18    19    1
    18    19    20   am
    19    20    21    2
    20    20    23    1
    21    23    24    1
    22    23    25    1
    23    25    26    1
    24    26    27    1
    25    27    28    1
    26    28    29    1
    27     5     6   ar
    28     6     7   ar
    29    12    13   ar
    30    13     8   ar
    31     7     2   ar
    32    29    23    1
    33    19    22    1
    34    24    30    1
    35    24    31    1
@<TRIPOS>MOLECULE
*****
 33 35 0 0 0
SMALL
GASTEIGER

@<TRIPOS>ATOM
      1 C         140.7157  145.2698  161.7428 C.3     1  UNL1        0.0616
      2 C         141.2701  143.0599  165.6233 C.ar    1  UNL1        0.0000
      3 C         139.9959  143.8065  165.3609 C.ar    1  UNL1       -0.0003
      4 C         139.8111  144.5432  164.0673 C.ar    1  UNL1       -0.0042
      5 C         140.9005  144.5332  163.0363 C.ar    1  UNL1       -0.0194
      6 C         142.1747  143.7865  163.2988 C.ar    1  UNL1       -0.0042
      7 C         142.3595  143.0499  164.5923 C.ar    1  UNL1       -0.0003
      8 C         140.4490  141.0305  168.9336 C.ar    1  UNL1        0.1057
      9 C         141.8246  140.8500  169.5039 C.ar    1  UNL1        0.0183
     10 C         143.0153  141.4061  168.7807 C.ar    1  UNL1        0.0013
     11 C         142.8305  142.1427  167.4872 C.ar    1  UNL1        0.0001
     12 C         141.4550  142.3232  166.9169 C.ar    1  UNL1        0.0013
     13 C         140.2642  141.7671  167.6401 C.ar    1  UNL1        0.0183
     14 C         138.0676  139.9183  170.3799 C.3     1  UNL1        0.1816
     15 S         139.2583  140.4744  169.6567 S.O2    1  UNL1        0.0104
     16 O         138.9722  139.5730  168.4925 O.2     1  UNL1       -0.1686
     17 O         139.5444  141.3759  170.8210 O.2     1  UNL1       -0.1686
     18 C         140.3599  144.5169  160.4952 C.3     1  UNL1        0.1684
     19 N         140.0832  143.0441  160.5611 N.am    1  UNL1       -0.2925
     20 C         138.7639  142.5513  161.0776 C.2     1  UNL1        0.2356
     21 O         137.7214  143.5312  161.5280 O.2     1  UNL1       -0.2737
     22 H         140.7674  142.4009  160.2655 H       1  UNL1        0.1504
     23 C         138.4871  141.0785  161.1436 C.3     1  UNL1        0.1134
     24 N         138.3513  141.3032  159.6667 N.3     1  UNL1       -0.3163
     25 C         138.7190  141.3654  162.5975 C.3     1  UNL1        0.0552
     26 C         138.6269  140.2575  163.6046 C.3     1  UNL1        0.1440
     27 O         138.3030  138.8628  163.1576 O.3     1  UNL1       -0.3537
     28 C         138.0711  138.5759  161.7036 C.3     1  UNL1        0.1440
     29 C         138.1632  139.6838  160.6966 C.3     1  UNL1        0.0552
     30 H         138.5161  142.2875  159.4560 H       1  UNL1        0.1192
     31 H         137.4109  141.0444  159.3685 H       1  UNL1        0.1192
     32 C         140.2810  145.2367  159.1815 C.1     1  UNL1        0.0927
     33 N         140.2020  145.9565  157.8679 N.1     1  UNL1       -0.1942
@<TRIPOS>BOND
     1    14    15    1
     2    15    16    2
     3    15    17    2
     4    15     8    1
     5     8     9   ar
     6     9    10   ar
     7    10    11   ar
     8    11    12   ar
     9    12     2    1
    10     2     3   ar
    11     3     4   ar
    12     4     5   ar
    13     5     1    1
    14    18     1    1
    15    18    32    1
    16    32    33    3
    17    18    19    1
    18    19    20   am
    19    20    21    2
    20    20    23    1
    21    23    24    1
    22    23    25    1
    23    25    26    1
    24    26    27    1
    25    27    28    1
    26    28    29    1
    27     5     6   ar
    28     6     7   ar
    29    12    13   ar
    30    13     8   ar
    31     7     2   ar
    32    29    23    1
    33    19    22    1
    34    24    30    1
    35    24    31    1
@<TRIPOS>MOLECULE
*****
 33 35 0 0 0
SMALL
GASTEIGER

@<TRIPOS>ATOM
      1 C         141.7441  138.2623  162.0697 C.3     1  UNL1        0.0616
      2 C         140.8742  139.7689  166.2198 C.ar    1  UNL1        0.0000
      3 C         139.8577  139.9424  165.1306 C.ar    1  UNL1       -0.0003
      4 C         140.1476  139.4402  163.7471 C.ar    1  UNL1       -0.0042
      5 C         141.4541  138.7645  163.4531 C.ar    1  UNL1       -0.0194
      6 C         142.4706  138.5910  164.5424 C.ar    1  UNL1       -0.0042
      7 C         142.1807  139.0932  165.9258 C.ar    1  UNL1       -0.0003
      8 C         141.2709  141.6798  169.6754 C.ar    1  UNL1        0.1057
      9 C         140.0044  141.2755  170.3699 C.ar    1  UNL1        0.0183
     10 C         139.0278  140.3690  169.6811 C.ar    1  UNL1        0.0013
     11 C         139.3177  139.8668  168.2978 C.ar    1  UNL1        0.0001
     12 C         140.5842  140.2711  167.6033 C.ar    1  UNL1        0.0013
     13 C         141.5608  141.1776  168.2921 C.ar    1  UNL1        0.0183
     14 C         143.2242  143.4929  171.0530 C.3     1  UNL1        0.1816
     15 S         142.2476  142.5864  170.3642 S.O2    1  UNL1        0.0104
     16 O         142.9540  142.8156  169.0610 O.2     1  UNL1       -0.1686
     17 O         141.5411  142.3572  171.6674 O.2     1  UNL1       -0.1686
     18 C         142.3026  139.1940  161.0354 C.3     1  UNL1        0.1684
     19 N         142.4684  140.6513  161.3499 N.am    1  UNL1       -0.2925
     20 C         143.6964  141.1288  162.0670 C.2     1  UNL1        0.2356
     21 O         144.7585  140.1491  162.4695 O.2     1  UNL1       -0.2737
     22 H         141.7713  141.2943  161.0857 H       1  UNL1        0.1504
     23 C         143.8621  142.5861  162.3815 C.3     1  UNL1        0.1134
     24 N         145.1170  142.3447  161.5960 N.3     1  UNL1       -0.3163
     25 C         142.5497  142.3213  163.0577 C.3     1  UNL1        0.0552
     26 C         141.8388  143.4300  163.7757 C.3     1  UNL1        0.1440
     27 O         142.4404  144.8034  163.8174 O.3     1  UNL1       -0.3537
     28 C         143.7529  145.0682  163.1412 C.3     1  UNL1        0.1440
     29 C         144.4638  143.9595  162.4232 C.3     1  UNL1        0.0552
     30 H         145.1517  141.3686  161.3020 H       1  UNL1        0.1192
     31 H         145.9281  142.5534  162.1783 H       1  UNL1        0.1192
     32 C         142.6955  138.6685  159.6865 C.1     1  UNL1        0.0927
     33 N         143.0883  138.1430  158.3376 N.1     1  UNL1       -0.1942
@<TRIPOS>BOND
     1    14    15    1
     2    15    16    2
     3    15    17    2
     4    15     8    1
     5     8     9   ar
     6     9    10   ar
     7    10    11   ar
     8    11    12   ar
     9    12     2    1
    10     2     3   ar
    11     3     4   ar
    12     4     5   ar
    13     5     1    1
    14    18     1    1
    15    18    32    1
    16    32    33    3
    17    18    19    1
    18    19    20   am
    19    20    21    2
    20    20    23    1
    21    23    24    1
    22    23    25    1
    23    25    26    1
    24    26    27    1
    25    27    28    1
    26    28    29    1
    27     5     6   ar
    28     6     7   ar
    29    12    13   ar
    30    13     8   ar
    31     7     2   ar
    32    29    23    1
    33    19    22    1
    34    24    30    1
    35    24    31    1
@<TRIPOS>MOLECULE
*****
 33 35 0 0 0
SMALL
GASTEIGER

@<TRIPOS>ATOM
      1 C         139.6230  138.2965  162.1763 C.3     1  UNL1        0.0616
      2 C         139.8279  139.7214  166.4398 C.ar    1  UNL1        0.0000
      3 C         141.0907  139.5064  165.6594 C.ar    1  UNL1       -0.0003
      4 C         141.0224  139.0314  164.2382 C.ar    1  UNL1       -0.0042
      5 C         139.6913  138.7714  163.5974 C.ar    1  UNL1       -0.0194
      6 C         138.4285  138.9864  164.3780 C.ar    1  UNL1       -0.0042
      7 C         138.4968  139.4614  165.7991 C.ar    1  UNL1       -0.0003
      8 C         141.1165  141.5186  169.7353 C.ar    1  UNL1        0.1057
      9 C         140.0329  141.1463  170.7033 C.ar    1  UNL1        0.0183
     10 C         138.8810  140.2990  170.2503 C.ar    1  UNL1        0.0013
     11 C         138.8127  139.8240  168.8291 C.ar    1  UNL1        0.0001
     12 C         139.8962  140.1963  167.8611 C.ar    1  UNL1        0.0013
     13 C         141.0481  141.0436  168.3141 C.ar    1  UNL1        0.0183
     14 C         143.4203  143.2131  170.6414 C.3     1  UNL1        0.1816
     15 S         142.2684  142.3658  170.1883 S.O2    1  UNL1        0.0104
     16 O         141.7745  142.2812  171.6022 O.2     1  UNL1       -0.1686
     17 O         142.7622  142.4505  168.7745 O.2     1  UNL1       -0.1686
     18 C         139.6976  139.2852  161.0508 C.3     1  UNL1        0.1684
     19 N         139.9217  140.7392  161.3433 N.am    1  UNL1       -0.2925
     20 C         138.7636  141.6161  161.7177 C.2     1  UNL1        0.2356
     21 O         137.3816  141.0389  161.7996 O.2     1  UNL1       -0.2737
     22 H         140.8288  141.1180  161.2896 H       1  UNL1        0.1504
     23 C         138.9877  143.0701  162.0103 C.3     1  UNL1        0.1134
     24 N         137.7436  143.1607  161.1772 N.3     1  UNL1       -0.3163
     25 C         140.1540  142.4744  162.7417 C.3     1  UNL1        0.0552
     26 C         141.1123  143.3643  163.4765 C.3     1  UNL1        0.1440
     27 O         140.9042  144.8498  163.4796 O.3     1  UNL1       -0.3537
     28 C         139.7380  145.4455  162.7482 C.3     1  UNL1        0.1440
     29 C         138.7797  144.5556  162.0135 C.3     1  UNL1        0.0552
     30 H         137.4564  142.2244  160.8921 H       1  UNL1        0.1192
     31 H         137.9295  143.7263  160.3490 H       1  UNL1        0.1192
     32 C         139.5481  138.8198  159.6326 C.1     1  UNL1        0.0927
     33 N         139.3986  138.3546  158.2144 N.1     1  UNL1       -0.1942
@<TRIPOS>BOND
     1    14    15    1
     2    15    16    2
     3    15    17    2
     4    15     8    1
     5     8     9   ar
     6     9    10   ar
     7    10    11   ar
     8    11    12   ar
     9    12     2    1
    10     2     3   ar
    11     3     4   ar
    12     4     5   ar
    13     5     1    1
    14    18     1    1
    15    18    32    1
    16    32    33    3
    17    18    19    1
    18    19    20   am
    19    20    21    2
    20    20    23    1
    21    23    24    1
    22    23    25    1
    23    25    26    1
    24    26    27    1
    25    27    28    1
    26    28    29    1
    27     5     6   ar
    28     6     7   ar
    29    12    13   ar
    30    13     8   ar
    31     7     2   ar
    32    29    23    1
    33    19    22    1
    34    24    30    1
    35    24    31    1
@<TRIPOS>MOLECULE
*****
 33 35 0 0 0
SMALL
GASTEIGER

@<TRIPOS>ATOM
      1 C         139.4149  137.6850  164.8267 C.3     1  UNL1        0.0616
      2 C         141.1079  138.6349  160.7669 C.ar    1  UNL1        0.0000
      3 C         141.9815  138.7227  161.9831 C.ar    1  UNL1       -0.0003
      4 C         141.4172  138.4061  163.3364 C.ar    1  UNL1       -0.0042
      5 C         139.9792  138.0016  163.4735 C.ar    1  UNL1       -0.0194
      6 C         139.1056  137.9138  162.2572 C.ar    1  UNL1       -0.0042
      7 C         139.6699  138.2304  160.9040 C.ar    1  UNL1       -0.0003
      8 C         142.7793  138.1674  157.1979 C.ar    1  UNL1        0.1057
      9 C         142.8007  139.5846  156.7071 C.ar    1  UNL1        0.0183
     10 C         142.2579  140.6853  157.5696 C.ar    1  UNL1        0.0013
     11 C         141.6936  140.3687  158.9229 C.ar    1  UNL1        0.0001
     12 C         141.6722  138.9515  159.4136 C.ar    1  UNL1        0.0013
     13 C         142.2150  137.8508  158.5512 C.ar    1  UNL1        0.0183
     14 C         143.8649  135.9660  155.4730 C.3     1  UNL1        0.1816
     15 S         143.3221  137.0667  156.3354 S.O2    1  UNL1        0.0104
     16 O         142.1940  136.1753  156.7631 O.2     1  UNL1       -0.1686
     17 O         144.4501  137.9581  155.9078 O.2     1  UNL1       -0.1686
     18 C         138.4472  138.6297  165.4755 C.3     1  UNL1        0.1684
     19 N         138.2524  140.0068  164.9136 N.am    1  UNL1       -0.2925
     20 C         139.2588  141.0821  165.1980 C.2     1  UNL1        0.2356
     21 O         140.4600  140.7803  166.0442 O.2     1  UNL1       -0.2737
     22 H         137.4640  140.2049  164.3582 H       1  UNL1        0.1504
     23 C         139.0640  142.4592  164.6362 C.3     1  UNL1        0.1134
     24 N         139.7931  142.7955  165.9032 N.3     1  UNL1       -0.3163
     25 C         138.4027  141.6446  163.5643 C.3     1  UNL1        0.0552
     26 C         137.7997  142.3240  162.3705 C.3     1  UNL1        0.1440
     27 O         137.8581  143.8178  162.2488 O.3     1  UNL1       -0.3537
     28 C         138.5195  144.6325  163.3207 C.3     1  UNL1        0.1440
     29 C         139.1225  143.9531  164.5145 C.3     1  UNL1        0.0552
     30 H         140.0027  141.9373  166.4129 H       1  UNL1        0.1192
     31 H         139.2093  143.4002  166.4811 H       1  UNL1        0.1192
     32 C         137.6742  138.1974  166.6861 C.1     1  UNL1        0.0927
     33 N         136.9012  137.7651  167.8967 N.1     1  UNL1       -0.1942
@<TRIPOS>BOND
     1    14    15    1
     2    15    16    2
     3    15    17    2
     4    15     8    1
     5     8     9   ar
     6     9    10   ar
     7    10    11   ar
     8    11    12   ar
     9    12     2    1
    10     2     3   ar
    11     3     4   ar
    12     4     5   ar
    13     5     1    1
    14    18     1    1
    15    18    32    1
    16    32    33    3
    17    18    19    1
    18    19    20   am
    19    20    21    2
    20    20    23    1
    21    23    24    1
    22    23    25    1
    23    25    26    1
    24    26    27    1
    25    27    28    1
    26    28    29    1
    27     5     6   ar
    28     6     7   ar
    29    12    13   ar
    30    13     8   ar
    31     7     2   ar
    32    29    23    1
    33    19    22    1
    34    24    30    1
    35    24    31    1
@<TRIPOS>MOLECULE
*****
 33 35 0 0 0
SMALL
GASTEIGER

@<TRIPOS>ATOM
      1 C         143.4478  138.4203  161.7798 C.3     1  UNL1        0.0616
      2 C         142.6720  139.5200  166.0738 C.ar    1  UNL1        0.0000
      3 C         143.6703  140.2982  165.2689 C.ar    1  UNL1       -0.0003
      4 C         143.9289  139.9316  163.8375 C.ar    1  UNL1       -0.0042
      5 C         143.1892  138.7869  163.2111 C.ar    1  UNL1       -0.0194
      6 C         142.1909  138.0087  164.0161 C.ar    1  UNL1       -0.0042
      7 C         141.9323  138.3753  165.4474 C.ar    1  UNL1       -0.0003
      8 C         141.5553  141.5865  169.2727 C.ar    1  UNL1        0.1057
      9 C         141.8961  140.6198  170.3678 C.ar    1  UNL1        0.0183
     10 C         142.4956  139.2865  170.0316 C.ar    1  UNL1        0.0013
     11 C         142.7542  138.9199  168.6003 C.ar    1  UNL1        0.0001
     12 C         142.4134  139.8866  167.5052 C.ar    1  UNL1        0.0013
     13 C         141.8139  141.2199  167.8414 C.ar    1  UNL1        0.0183
     14 C         140.3564  144.2530  169.9451 C.3     1  UNL1        0.1816
     15 S         140.9558  142.9198  169.6089 S.O2    1  UNL1        0.0104
     16 O         141.4580  142.7906  171.0164 O.2     1  UNL1       -0.1686
     17 O         140.4537  143.0489  168.2013 O.2     1  UNL1       -0.1686
     18 C         142.6943  139.1096  160.6812 C.3     1  UNL1        0.1684
     19 N         141.7027  140.1853  161.0122 N.am    1  UNL1       -0.2925
     20 C         140.2800  139.8243  161.3218 C.2     1  UNL1        0.2356
     21 O         139.8490  138.3878  161.3003 O.2     1  UNL1       -0.2737
     22 H         141.9855  141.1282  161.0263 H       1  UNL1        0.1504
     23 C         139.2883  140.9000  161.6529 C.3     1  UNL1        0.1134
     24 N         138.9141  140.6310  160.2255 N.3     1  UNL1       -0.3163
     25 C         140.0070  140.7953  162.9654 C.3     1  UNL1        0.0552
     26 C         139.6040  141.6729  164.1132 C.3     1  UNL1        0.1440
     27 O         138.4824  142.6552  163.9484 O.3     1  UNL1       -0.3537
     28 C         137.7637  142.7598  162.6360 C.3     1  UNL1        0.1440
     29 C         138.1667  141.8822  161.4881 C.3     1  UNL1        0.0552
     30 H         139.5172  139.9002  159.8478 H       1  UNL1        0.1192
     31 H         139.0290  141.4836  159.6774 H       1  UNL1        0.1192
     32 C         142.9325  138.7234  159.2514 C.1     1  UNL1        0.0927
     33 N         143.1706  138.3372  157.8217 N.1     1  UNL1       -0.1942
@<TRIPOS>BOND
     1    14    15    1
     2    15    16    2
     3    15    17    2
     4    15     8    1
     5     8     9   ar
     6     9    10   ar
     7    10    11   ar
     8    11    12   ar
     9    12     2    1
    10     2     3   ar
    11     3     4   ar
    12     4     5   ar
    13     5     1    1
    14    18     1    1
    15    18    32    1
    16    32    33    3
    17    18    19    1
    18    19    20   am
    19    20    21    2
    20    20    23    1
    21    23    24    1
    22    23    25    1
    23    25    26    1
    24    26    27    1
    25    27    28    1
    26    28    29    1
    27     5     6   ar
    28     6     7   ar
    29    12    13   ar
    30    13     8   ar
    31     7     2   ar
    32    29    23    1
    33    19    22    1
    34    24    30    1
    35    24    31    1
@<TRIPOS>MOLECULE
*****
 33 35 0 0 0
SMALL
GASTEIGER

@<TRIPOS>ATOM
      1 C         143.2381  138.2244  161.8477 C.3     1  UNL1        0.0616
      2 C         142.6043  139.4180  166.1400 C.ar    1  UNL1        0.0000
      3 C         143.9482  139.6042  165.5004 C.ar    1  UNL1       -0.0003
      4 C         144.1595  139.2063  164.0696 C.ar    1  UNL1       -0.0042
      5 C         143.0269  138.6223  163.2785 C.ar    1  UNL1       -0.0194
      6 C         141.6829  138.4361  163.9181 C.ar    1  UNL1       -0.0042
      7 C         141.4716  138.8339  165.3489 C.ar    1  UNL1       -0.0003
      8 C         141.5657  141.5420  169.3275 C.ar    1  UNL1        0.1057
      9 C         141.9704  140.6116  170.4323 C.ar    1  UNL1        0.0183
     10 C         142.5864  139.2833  170.1063 C.ar    1  UNL1        0.0013
     11 C         142.7977  138.8854  168.6756 C.ar    1  UNL1        0.0001
     12 C         142.3930  139.8158  167.5708 C.ar    1  UNL1        0.0013
     13 C         141.7770  141.1441  167.8968 C.ar    1  UNL1        0.0183
     14 C         140.3337  144.1985  169.9794 C.3     1  UNL1        0.1816
     15 S         140.9497  142.8702  169.6535 S.O2    1  UNL1        0.0104
     16 O         140.5416  143.0329  168.2192 O.2     1  UNL1       -0.1686
     17 O         141.3578  142.7075  171.0877 O.2     1  UNL1       -0.1686
     18 C         142.8321  139.1543  160.7430 C.3     1  UNL1        0.1684
     19 N         142.2091  140.4793  161.0689 N.am    1  UNL1       -0.2925
     20 C         143.0779  141.6499  161.4225 C.2     1  UNL1        0.2356
     21 O         144.5696  141.4954  161.4502 O.2     1  UNL1       -0.2737
     22 H         141.2300  140.5807  161.0507 H       1  UNL1        0.1504
     23 C         142.4549  142.9749  161.7483 C.3     1  UNL1        0.1134
     24 N         142.9083  143.2388  160.3431 N.3     1  UNL1       -0.3163
     25 C         142.2178  142.2508  163.0404 C.3     1  UNL1        0.0552
     26 C         141.5152  142.9434  164.1703 C.3     1  UNL1        0.1440
     27 O         141.0497  144.3600  164.0081 O.3     1  UNL1       -0.3537
     28 C         141.2868  145.0842  162.7160 C.3     1  UNL1        0.1440
     29 C         141.9894  144.3916  161.5861 C.3     1  UNL1        0.0552
     30 H         143.3654  142.4062  159.9713 H       1  UNL1        0.1192
     31 H         143.5661  144.0184  160.3388 H       1  UNL1        0.1192
     32 C         143.0491  138.7591  159.3123 C.1     1  UNL1        0.0927
     33 N         143.2661  138.3639  157.8817 N.1     1  UNL1       -0.1942
@<TRIPOS>BOND
     1    14    15    1
     2    15    16    2
     3    15    17    2
     4    15     8    1
     5     8     9   ar
     6     9    10   ar
     7    10    11   ar
     8    11    12   ar
     9    12     2    1
    10     2     3   ar
    11     3     4   ar
    12     4     5   ar
    13     5     1    1
    14    18     1    1
    15    18    32    1
    16    32    33    3
    17    18    19    1
    18    19    20   am
    19    20    21    2
    20    20    23    1
    21    23    24    1
    22    23    25    1
    23    25    26    1
    24    26    27    1
    25    27    28    1
    26    28    29    1
    27     5     6   ar
    28     6     7   ar
    29    12    13   ar
    30    13     8   ar
    31     7     2   ar
    32    29    23    1
    33    19    22    1
    34    24    30    1
    35    24    31    1
@<TRIPOS>MOLECULE
*****
 33 35 0 0 0
SMALL
GASTEIGER

@<TRIPOS>ATOM
      1 C         139.1159  137.7268  164.7549 C.3     1  UNL1        0.0616
      2 C         140.2440  138.4780  160.4639 C.ar    1  UNL1        0.0000
      3 C         141.3087  138.4087  161.5182 C.ar    1  UNL1       -0.0003
      4 C         140.9327  138.1583  162.9486 C.ar    1  UNL1       -0.0042
      5 C         139.4920  137.9772  163.3246 C.ar    1  UNL1       -0.0194
      6 C         138.4272  138.0464  162.2703 C.ar    1  UNL1       -0.0042
      7 C         138.8033  138.2969  160.8399 C.ar    1  UNL1       -0.0003
      8 C         140.0983  138.5066  156.4980 C.ar    1  UNL1        0.1057
      9 C         141.3719  139.2292  156.1728 C.ar    1  UNL1        0.0183
     10 C         142.2696  139.7013  157.2779 C.ar    1  UNL1        0.0013
     11 C         141.8936  139.4509  158.7083 C.ar    1  UNL1        0.0001
     12 C         140.6200  138.7284  159.0335 C.ar    1  UNL1        0.0013
     13 C         139.7224  138.2563  157.9284 C.ar    1  UNL1        0.0183
     14 C         138.3030  137.5623  154.2878 C.3     1  UNL1        0.1816
     15 S         139.2006  138.0345  155.3929 S.O2    1  UNL1        0.0104
     16 O         138.7834  136.8634  156.2322 O.2     1  UNL1       -0.1686
     17 O         139.6179  139.2056  154.5536 O.2     1  UNL1       -0.1686
     18 C         138.2793  138.7267  165.4965 C.3     1  UNL1        0.1684
     19 N         138.0857  140.1049  164.9368 N.am    1  UNL1       -0.2925
     20 C         139.1838  141.1207  165.0482 C.2     1  UNL1        0.2356
     21 O         140.4754  140.7584  165.7193 O.2     1  UNL1       -0.2737
     22 H         137.2380  140.3427  164.4963 H       1  UNL1        0.1504
     23 C         138.9902  142.4988  164.4885 C.3     1  UNL1        0.1134
     24 N         139.5887  142.8405  165.8208 N.3     1  UNL1       -0.3163
     25 C         138.4590  141.6785  163.3506 C.3     1  UNL1        0.0552
     26 C         137.9420  142.3550  162.1156 C.3     1  UNL1        0.1440
     27 O         137.9563  143.8518  162.0187 O.3     1  UNL1       -0.3537
     28 C         138.4875  144.6721  163.1566 C.3     1  UNL1        0.1440
     29 C         139.0045  143.9956  164.3915 C.3     1  UNL1        0.0552
     30 H         139.7827  141.9821  166.3365 H       1  UNL1        0.1192
     31 H         138.9332  143.4148  166.3508 H       1  UNL1        0.1192
     32 C         137.6362  138.3486  166.7979 C.1     1  UNL1        0.0927
     33 N         136.9931  137.9705  168.0992 N.1     1  UNL1       -0.1942
@<TRIPOS>BOND
     1    14    15    1
     2    15    16    2
     3    15    17    2
     4    15     8    1
     5     8     9   ar
     6     9    10   ar
     7    10    11   ar
     8    11    12   ar
     9    12     2    1
    10     2     3   ar
    11     3     4   ar
    12     4     5   ar
    13     5     1    1
    14    18     1    1
    15    18    32    1
    16    32    33    3
    17    18    19    1
    18    19    20   am
    19    20    21    2
    20    20    23    1
    21    23    24    1
    22    23    25    1
    23    25    26    1
    24    26    27    1
    25    27    28    1
    26    28    29    1
    27     5     6   ar
    28     6     7   ar
    29    12    13   ar
    30    13     8   ar
    31     7     2   ar
    32    29    23    1
    33    19    22    1
    34    24    30    1
    35    24    31    1
@<TRIPOS>MOLECULE
*****
 33 35 0 0 0
SMALL
GASTEIGER

@<TRIPOS>ATOM
      1 C         144.2934  140.0308  162.0501 C.3     1  UNL1        0.0616
      2 C         142.9075  140.1393  166.3300 C.ar    1  UNL1        0.0000
      3 C         143.6631  141.3013  165.7567 C.ar    1  UNL1       -0.0003
      4 C         144.1251  141.2652  164.3300 C.ar    1  UNL1       -0.0042
      5 C         143.8314  140.0670  163.4767 C.ar    1  UNL1       -0.0194
      6 C         143.0757  138.9050  164.0501 C.ar    1  UNL1       -0.0042
      7 C         142.6137  138.9412  165.4767 C.ar    1  UNL1       -0.0003
      8 C         141.2242  141.3994  169.6958 C.ar    1  UNL1        0.1057
      9 C         141.5215  140.2478  170.6098 C.ar    1  UNL1        0.0183
     10 C         142.2807  139.0600  170.0972 C.ar    1  UNL1        0.0013
     11 C         142.7427  139.0238  168.6706 C.ar    1  UNL1        0.0001
     12 C         142.4455  140.1754  167.7566 C.ar    1  UNL1        0.0013
     13 C         141.6862  141.3632  168.2692 C.ar    1  UNL1        0.0183
     14 C         139.7058  143.7749  170.7210 C.3     1  UNL1        0.1816
     15 S         140.4650  142.5872  170.2084 S.O2    1  UNL1        0.0104
     16 O         140.5834  142.0591  171.6074 O.2     1  UNL1       -0.1686
     17 O         140.3466  143.1152  168.8095 O.2     1  UNL1       -0.1686
     18 C         143.4512  140.6480  160.9732 C.3     1  UNL1        0.1684
     19 N         142.3734  141.6274  161.3327 N.am    1  UNL1       -0.2925
     20 C         142.6813  143.0945  161.3882 C.2     1  UNL1        0.2356
     21 O         144.0669  143.5821  161.0842 O.2     1  UNL1       -0.2737
     22 H         141.4640  141.3074  161.5322 H       1  UNL1        0.1504
     23 C         141.6036  144.0739  161.7477 C.3     1  UNL1        0.1134
     24 N         141.9909  143.5986  163.1167 N.3     1  UNL1       -0.3163
     25 C         141.5906  144.2090  160.2539 C.3     1  UNL1        0.0552
     26 C         140.6343  145.1585  159.5950 C.3     1  UNL1        0.1440
     27 O         139.6911  145.9728  160.4300 O.3     1  UNL1       -0.3537
     28 C         139.7041  145.8377  161.9238 C.3     1  UNL1        0.1440
     29 C         140.6604  144.8882  162.5827 C.3     1  UNL1        0.0552
     30 H         142.7365  142.9070  163.0382 H       1  UNL1        0.1192
     31 H         141.1816  143.1759  163.5714 H       1  UNL1        0.1192
     32 C         143.6867  140.2858  159.5367 C.1     1  UNL1        0.0927
     33 N         143.9222  139.9236  158.1003 N.1     1  UNL1       -0.1942
@<TRIPOS>BOND
     1    14    15    1
     2    15    16    2
     3    15    17    2
     4    15     8    1
     5     8     9   ar
     6     9    10   ar
     7    10    11   ar
     8    11    12   ar
     9    12     2    1
    10     2     3   ar
    11     3     4   ar
    12     4     5   ar
    13     5     1    1
    14    18     1    1
    15    18    32    1
    16    32    33    3
    17    18    19    1
    18    19    20   am
    19    20    21    2
    20    20    23    1
    21    23    24    1
    22    23    25    1
    23    25    26    1
    24    26    27    1
    25    27    28    1
    26    28    29    1
    27     5     6   ar
    28     6     7   ar
    29    12    13   ar
    30    13     8   ar
    31     7     2   ar
    32    29    23    1
    33    19    22    1
    34    24    30    1
    35    24    31    1
