@<TRIPOS>MOLECULE
*****
 34 36 0 0 0
SMALL
GASTEIGER

@<TRIPOS>ATOM
      1 N         139.1025  138.6308  162.4866 N.3     1  UNL1       -0.2721
      2 C         139.1626  139.0413  163.9281 C.3     1  UNL1        0.0610
      3 C         139.7012  140.3904  164.3018 C.3     1  UNL1        0.0375
      4 C         139.7612  140.8010  165.7433 C.3     1  UNL1        0.0950
      5 N         139.2827  139.8624  166.8110 N.pl3   1  UNL1       -0.2785
      6 C         138.7441  138.5132  166.4373 C.3     1  UNL1        0.0950
      7 C         138.6840  138.1026  164.9958 C.3     1  UNL1        0.0375
      8 C         139.3428  140.2729  168.2525 C.ar    1  UNL1        0.2163
      9 N         140.1749  141.3854  168.8185 N.ar    1  UNL1       -0.1804
     10 C         139.9277  141.4431  170.2969 C.ar    1  UNL1        0.2331
     11 N         140.5551  142.4081  171.2586 N.pl3   1  UNL1       -0.3262
     12 N         138.9429  140.3663  170.6446 N.ar    1  UNL1       -0.1354
     13 N         138.5815  139.6432  169.3811 N.ar    1  UNL1       -0.2450
     14 H         141.1938  143.0828  170.9328 H       1  UNL1        0.1452
     15 H         140.3283  142.3669  172.2158 H       1  UNL1        0.1452
     16 H         137.9546  138.8878  169.3058 H       1  UNL1        0.1919
     17 C         137.8090  138.7255  161.7331 C.3     1  UNL1        0.0936
     18 C         137.6422  139.7560  160.6560 C.3     1  UNL1        0.1082
     19 C         138.1651  144.3564  163.0149 C.3     1  UNL1        0.1122
     20 N         138.5910  143.3840  161.9550 N.am    1  UNL1       -0.2872
     21 C         137.9037  142.0562  161.8354 C.2     1  UNL1        0.3008
     22 O         136.7903  141.7006  162.7757 O.2     1  UNL1       -0.2528
     23 N         138.3296  141.0840  160.7756 N.am    1  UNL1       -0.2875
     24 H         139.3217  143.6174  161.3379 H       1  UNL1        0.1510
     25 H         139.0603  141.3174  160.1585 H       1  UNL1        0.1510
     26 C         140.3360  138.1254  161.7986 C.3     1  UNL1        0.0768
     27 C         141.5120  137.6667  162.6089 C.3     1  UNL1        0.0437
     28 C         142.6288  138.6199  162.9161 C.ar    1  UNL1       -0.0207
     29 C         143.0833  138.8110  164.3327 C.ar    1  UNL1       -0.0034
     30 C         144.2000  139.7641  164.6399 C.ar    1  UNL1        0.0111
     31 C         144.8622  140.5261  163.5305 C.ar    1  UNL1        0.0577
     32 CL        145.9790  141.4793  163.8377 Cl      1  UNL1       -0.0822
     33 C         144.4077  140.3350  162.1139 C.ar    1  UNL1        0.0111
     34 C         143.2910  139.3819  161.8067 C.ar    1  UNL1       -0.0034
@<TRIPOS>BOND
     1    19    20    1
     2    20    21   am
     3    21    22    2
     4    21    23   am
     5    23    18    1
     6    18    17    1
     7    17     1    1
     8     1    26    1
     9    26    27    1
    10    27    28    1
    11    28    29   ar
    12    29    30   ar
    13    30    31   ar
    14    31    32    1
    15    31    33   ar
    16    33    34   ar
    17     1     2    1
    18     2     3    1
    19     3     4    1
    20     4     5    1
    21     5     8    1
    22     8     9   ar
    23     9    10   ar
    24    10    11    1
    25    10    12   ar
    26    12    13   ar
    27     5     6    1
    28     6     7    1
    29    34    28   ar
    30     7     2    1
    31    13     8   ar
    32    20    24    1
    33    23    25    1
    34    11    14    1
    35    11    15    1
    36    13    16    1
@<TRIPOS>MOLECULE
*****
 34 36 0 0 0
SMALL
GASTEIGER

@<TRIPOS>ATOM
      1 N         138.4895  139.5378  163.9857 N.3     1  UNL1       -0.2721
      2 C         139.0654  140.0947  165.2538 C.3     1  UNL1        0.0610
      3 C         138.8948  139.3507  166.5451 C.3     1  UNL1        0.0375
      4 C         139.4707  139.9077  167.8133 C.3     1  UNL1        0.0950
      5 N         140.2171  141.2085  167.7902 N.pl3   1  UNL1       -0.2785
      6 C         140.3877  141.9525  166.4988 C.3     1  UNL1        0.0950
      7 C         139.8119  141.3956  165.2307 C.3     1  UNL1        0.0375
      8 C         140.7929  141.7654  169.0583 C.ar    1  UNL1        0.2163
      9 N         141.9862  142.6685  169.1628 N.ar    1  UNL1       -0.1804
     10 C         142.2073  142.9782  170.6137 C.ar    1  UNL1        0.2331
     11 N         143.2942  143.8471  171.1740 N.pl3   1  UNL1       -0.3262
     12 N         141.1509  142.2666  171.4060 N.ar    1  UNL1       -0.1354
     13 N         140.2768  141.5171  170.4446 N.ar    1  UNL1       -0.2450
     14 H         143.9442  144.2733  170.5699 H       1  UNL1        0.1452
     15 H         143.3574  143.9910  172.1459 H       1  UNL1        0.1452
     16 H         139.5006  140.9600  170.6819 H       1  UNL1        0.1919
     17 C         137.6685  140.4139  163.0866 C.3     1  UNL1        0.0936
     18 C         138.3365  141.2266  162.0174 C.3     1  UNL1        0.1082
     19 C         139.9139  146.1756  161.8759 C.3     1  UNL1        0.1122
     20 N         138.8109  145.1612  161.8081 N.am    1  UNL1       -0.2872
     21 C         139.1252  143.7011  161.9467 C.2     1  UNL1        0.3008
     22 O         140.5425  143.2553  162.1530 O.2     1  UNL1       -0.2528
     23 N         138.0222  142.6868  161.8789 N.am    1  UNL1       -0.2875
     24 H         137.8807  145.4538  161.6727 H       1  UNL1        0.1510
     25 H         137.0920  142.9794  161.7434 H       1  UNL1        0.1510
     26 C         138.7347  138.1046  163.6166 C.3     1  UNL1        0.0768
     27 C         139.9713  137.7270  162.8562 C.3     1  UNL1        0.0437
     28 C         141.2840  138.3706  163.1918 C.ar    1  UNL1       -0.0207
     29 C         141.9155  139.3325  162.2296 C.ar    1  UNL1       -0.0034
     30 C         143.2282  139.9760  162.5653 C.ar    1  UNL1        0.0111
     31 C         143.9094  139.6576  163.8632 C.ar    1  UNL1        0.0577
     32 CL        145.2221  140.3012  164.1989 Cl      1  UNL1       -0.0822
     33 C         143.2779  138.6958  164.8255 C.ar    1  UNL1        0.0111
     34 C         141.9652  138.0522  164.4898 C.ar    1  UNL1       -0.0034
@<TRIPOS>BOND
     1    19    20    1
     2    20    21   am
     3    21    22    2
     4    21    23   am
     5    23    18    1
     6    18    17    1
     7    17     1    1
     8     1    26    1
     9    26    27    1
    10    27    28    1
    11    28    29   ar
    12    29    30   ar
    13    30    31   ar
    14    31    32    1
    15    31    33   ar
    16    33    34   ar
    17     1     2    1
    18     2     3    1
    19     3     4    1
    20     4     5    1
    21     5     8    1
    22     8     9   ar
    23     9    10   ar
    24    10    11    1
    25    10    12   ar
    26    12    13   ar
    27     5     6    1
    28     6     7    1
    29    34    28   ar
    30     7     2    1
    31    13     8   ar
    32    20    24    1
    33    23    25    1
    34    11    14    1
    35    11    15    1
    36    13    16    1
@<TRIPOS>MOLECULE
*****
 34 36 0 0 0
SMALL
GASTEIGER

@<TRIPOS>ATOM
      1 N         143.7476  140.2102  164.0775 N.3     1  UNL1       -0.2721
      2 C         143.1310  140.5971  165.3890 C.3     1  UNL1        0.0610
      3 C         142.7793  142.0302  165.6587 C.3     1  UNL1        0.0375
      4 C         142.1627  142.4171  166.9702 C.3     1  UNL1        0.0950
      5 N         141.8978  141.3711  168.0121 N.pl3   1  UNL1       -0.2785
      6 C         142.2496  139.9380  167.7425 C.3     1  UNL1        0.0950
      7 C         142.8661  139.5510  166.4310 C.3     1  UNL1        0.0375
      8 C         141.2813  141.7581  169.3236 C.ar    1  UNL1        0.2163
      9 N         140.1141  142.6816  169.5108 N.ar    1  UNL1       -0.1804
     10 C         139.8351  142.7838  170.9811 C.ar    1  UNL1        0.2331
     11 N         138.7517  143.6025  171.6181 N.pl3   1  UNL1       -0.3262
     12 N         140.8297  141.9234  171.7026 N.ar    1  UNL1       -0.1354
     13 N         141.7235  141.2895  170.6782 N.ar    1  UNL1       -0.2450
     14 H         138.1448  144.1376  171.0572 H       1  UNL1        0.1452
     15 H         138.6475  143.6049  172.5970 H       1  UNL1        0.1452
     16 H         142.4694  140.6739  170.8625 H       1  UNL1        0.1919
     17 C         145.2059  140.4604  163.8315 C.3     1  UNL1        0.0936
     18 C         145.6488  141.7394  163.1852 C.3     1  UNL1        0.1082
     19 C         142.3403  143.7833  159.7390 C.3     1  UNL1        0.1122
     20 N         142.9824  143.8055  161.0944 N.am    1  UNL1       -0.2872
     21 C         143.9945  142.7613  161.4621 C.2     1  UNL1        0.3008
     22 O         144.3646  141.6948  160.4743 O.2     1  UNL1       -0.2528
     23 N         144.6366  142.7837  162.8175 N.am    1  UNL1       -0.2875
     24 H         142.7396  144.5055  161.7427 H       1  UNL1        0.1510
     25 H         144.3938  143.4837  163.4658 H       1  UNL1        0.1510
     26 C         142.9057  139.5730  163.0120 C.3     1  UNL1        0.0768
     27 C         141.4616  139.9528  162.8700 C.3     1  UNL1        0.0437
     28 C         140.4605  139.4885  163.8861 C.ar    1  UNL1       -0.0207
     29 C         139.6213  140.4893  164.6237 C.ar    1  UNL1       -0.0034
     30 C         138.6203  140.0250  165.6397 C.ar    1  UNL1        0.0111
     31 C         138.4586  138.5600  165.9182 C.ar    1  UNL1        0.0577
     32 CL        137.4575  138.0958  166.9343 Cl      1  UNL1       -0.0822
     33 C         139.2978  137.5593  165.1806 C.ar    1  UNL1        0.0111
     34 C         140.2988  138.0235  164.1646 C.ar    1  UNL1       -0.0034
@<TRIPOS>BOND
     1    19    20    1
     2    20    21   am
     3    21    22    2
     4    21    23   am
     5    23    18    1
     6    18    17    1
     7    17     1    1
     8     1    26    1
     9    26    27    1
    10    27    28    1
    11    28    29   ar
    12    29    30   ar
    13    30    31   ar
    14    31    32    1
    15    31    33   ar
    16    33    34   ar
    17     1     2    1
    18     2     3    1
    19     3     4    1
    20     4     5    1
    21     5     8    1
    22     8     9   ar
    23     9    10   ar
    24    10    11    1
    25    10    12   ar
    26    12    13   ar
    27     5     6    1
    28     6     7    1
    29    34    28   ar
    30     7     2    1
    31    13     8   ar
    32    20    24    1
    33    23    25    1
    34    11    14    1
    35    11    15    1
    36    13    16    1
@<TRIPOS>MOLECULE
*****
 34 36 0 0 0
SMALL
GASTEIGER

@<TRIPOS>ATOM
      1 N         140.4410  141.9214  167.3769 N.3     1  UNL1       -0.2721
      2 C         140.4673  142.5570  166.0185 C.3     1  UNL1        0.0610
      3 C         139.5083  143.6622  165.6889 C.3     1  UNL1        0.0375
      4 C         139.5347  144.2978  164.3304 C.3     1  UNL1        0.0950
      5 N         140.5200  143.8281  163.3016 N.pl3   1  UNL1       -0.2785
      6 C         141.4791  142.7229  163.6313 C.3     1  UNL1        0.0950
      7 C         141.4528  142.0873  164.9897 C.3     1  UNL1        0.0375
      8 C         140.5463  144.4637  161.9432 C.ar    1  UNL1        0.2163
      9 N         141.7213  144.5047  161.0116 N.ar    1  UNL1       -0.1804
     10 C         141.3034  145.2363  159.7705 C.ar    1  UNL1        0.2331
     11 N         142.1672  145.5088  158.5748 N.pl3   1  UNL1       -0.3262
     12 N         139.8703  145.6474  159.9350 N.ar    1  UNL1       -0.1354
     13 N         139.4024  145.1699  161.2779 N.ar    1  UNL1       -0.2450
     14 H         143.1008  145.1969  158.5606 H       1  UNL1        0.1452
     15 H         141.8004  145.9997  157.8042 H       1  UNL1        0.1452
     16 H         138.5025  145.2976  161.6561 H       1  UNL1        0.1919
     17 C         140.4732  142.7791  168.6070 C.3     1  UNL1        0.0936
     18 C         141.0502  142.2400  169.8823 C.3     1  UNL1        0.1082
     19 C         145.5145  144.5370  171.2215 C.3     1  UNL1        0.1122
     20 N         144.0550  144.2921  171.4665 N.am    1  UNL1       -0.2872
     21 C         143.2824  143.3885  170.5519 C.2     1  UNL1        0.3008
     22 O         143.9691  142.7298  169.3924 O.2     1  UNL1       -0.2528
     23 N         141.8229  143.1436  170.7969 N.am    1  UNL1       -0.2875
     24 H         143.6043  144.7244  172.2275 H       1  UNL1        0.1510
     25 H         141.3722  143.5759  171.5580 H       1  UNL1        0.1510
     26 C         140.3824  140.4280  167.5052 C.3     1  UNL1        0.0768
     27 C         139.1607  139.6838  167.0541 C.3     1  UNL1        0.0437
     28 C         139.0091  139.2944  165.6134 C.ar    1  UNL1       -0.0207
     29 C         139.6450  138.0341  165.1062 C.ar    1  UNL1       -0.0034
     30 C         139.4934  137.6448  163.6656 C.ar    1  UNL1        0.0111
     31 C         138.7057  138.5156  162.7323 C.ar    1  UNL1        0.0577
     32 CL        138.5540  138.1262  161.2916 Cl      1  UNL1       -0.0822
     33 C         138.0697  139.7758  163.2395 C.ar    1  UNL1        0.0111
     34 C         138.2214  140.1652  164.6800 C.ar    1  UNL1       -0.0034
@<TRIPOS>BOND
     1    19    20    1
     2    20    21   am
     3    21    22    2
     4    21    23   am
     5    23    18    1
     6    18    17    1
     7    17     1    1
     8     1    26    1
     9    26    27    1
    10    27    28    1
    11    28    29   ar
    12    29    30   ar
    13    30    31   ar
    14    31    32    1
    15    31    33   ar
    16    33    34   ar
    17     1     2    1
    18     2     3    1
    19     3     4    1
    20     4     5    1
    21     5     8    1
    22     8     9   ar
    23     9    10   ar
    24    10    11    1
    25    10    12   ar
    26    12    13   ar
    27     5     6    1
    28     6     7    1
    29    34    28   ar
    30     7     2    1
    31    13     8   ar
    32    20    24    1
    33    23    25    1
    34    11    14    1
    35    11    15    1
    36    13    16    1
@<TRIPOS>MOLECULE
*****
 34 36 0 0 0
SMALL
GASTEIGER

@<TRIPOS>ATOM
      1 N         142.8656  140.4969  162.4608 N.3     1  UNL1       -0.2721
      2 C         142.5944  141.0005  163.8475 C.3     1  UNL1        0.0610
      3 C         141.9714  142.3503  164.0468 C.3     1  UNL1        0.0375
      4 C         141.7002  142.8538  165.4335 C.3     1  UNL1        0.0950
      5 N         142.0522  142.0076  166.6209 N.pl3   1  UNL1       -0.2785
      6 C         142.6753  140.6577  166.4216 C.3     1  UNL1        0.0950
      7 C         142.9464  140.1542  165.0350 C.3     1  UNL1        0.0375
      8 C         141.7810  142.5112  168.0076 C.ar    1  UNL1        0.2163
      9 N         140.4384  142.8824  168.5640 N.ar    1  UNL1       -0.1804
     10 C         140.6325  143.3326  169.9817 C.ar    1  UNL1        0.2331
     11 N         139.5535  143.7946  170.9156 N.pl3   1  UNL1       -0.3262
     12 N         142.0951  143.2395  170.3014 N.ar    1  UNL1       -0.1354
     13 N         142.8049  142.7319  169.0814 N.ar    1  UNL1       -0.2450
     14 H         138.6174  143.8208  170.6117 H       1  UNL1        0.1452
     15 H         139.7813  144.0717  171.8324 H       1  UNL1        0.1452
     16 H         143.7728  142.5717  168.9997 H       1  UNL1        0.1919
     17 C         144.0448  141.0150  161.6920 C.3     1  UNL1        0.0936
     18 C         143.8317  141.8714  160.4791 C.3     1  UNL1        0.1082
     19 C         140.3099  145.6749  160.8412 C.3     1  UNL1        0.1122
     20 N         141.7417  145.2280  160.8177 N.am    1  UNL1       -0.2872
     21 C         142.0708  143.7731  160.6602 C.2     1  UNL1        0.3008
     22 O         140.9682  142.7650  160.5260 O.2     1  UNL1       -0.2528
     23 N         143.5025  143.3263  160.6367 N.am    1  UNL1       -0.2875
     24 H         142.4654  145.8897  160.9058 H       1  UNL1        0.1510
     25 H         144.2262  143.9880  160.7247 H       1  UNL1        0.1510
     26 C         141.9575  139.4753  161.8430 C.3     1  UNL1        0.0768
     27 C         140.4695  139.6429  161.9319 C.3     1  UNL1        0.0437
     28 C         139.7540  139.3240  163.2112 C.ar    1  UNL1       -0.0207
     29 C         139.8547  137.9501  163.8045 C.ar    1  UNL1       -0.0034
     30 C         139.1392  137.6313  165.0837 C.ar    1  UNL1        0.0111
     31 C         138.3230  138.6865  165.7696 C.ar    1  UNL1        0.0577
     32 CL        137.6075  138.3676  167.0488 Cl      1  UNL1       -0.0822
     33 C         138.2223  140.0604  165.1762 C.ar    1  UNL1        0.0111
     34 C         138.9378  140.3792  163.8971 C.ar    1  UNL1       -0.0034
@<TRIPOS>BOND
     1    19    20    1
     2    20    21   am
     3    21    22    2
     4    21    23   am
     5    23    18    1
     6    18    17    1
     7    17     1    1
     8     1    26    1
     9    26    27    1
    10    27    28    1
    11    28    29   ar
    12    29    30   ar
    13    30    31   ar
    14    31    32    1
    15    31    33   ar
    16    33    34   ar
    17     1     2    1
    18     2     3    1
    19     3     4    1
    20     4     5    1
    21     5     8    1
    22     8     9   ar
    23     9    10   ar
    24    10    11    1
    25    10    12   ar
    26    12    13   ar
    27     5     6    1
    28     6     7    1
    29    34    28   ar
    30     7     2    1
    31    13     8   ar
    32    20    24    1
    33    23    25    1
    34    11    14    1
    35    11    15    1
    36    13    16    1
@<TRIPOS>MOLECULE
*****
 34 36 0 0 0
SMALL
GASTEIGER

@<TRIPOS>ATOM
      1 N         144.1518  140.9062  163.6585 N.3     1  UNL1       -0.2721
      2 C         143.3056  140.8206  164.8941 C.3     1  UNL1        0.0610
      3 C         142.2353  141.8417  165.1423 C.3     1  UNL1        0.0375
      4 C         141.3891  141.7561  166.3779 C.3     1  UNL1        0.0950
      5 N         141.6133  140.6494  167.3653 N.pl3   1  UNL1       -0.2785
      6 C         142.6837  139.6283  167.1171 C.3     1  UNL1        0.0950
      7 C         143.5299  139.7139  165.8815 C.3     1  UNL1        0.0375
      8 C         140.7672  140.5638  168.6009 C.ar    1  UNL1        0.2163
      9 N         139.3945  139.9653  168.6898 N.ar    1  UNL1       -0.1804
     10 C         138.9241  140.0933  170.1084 C.ar    1  UNL1        0.2331
     11 N         137.6037  139.6259  170.6450 N.pl3   1  UNL1       -0.3262
     12 N         140.0060  140.7709  170.8962 N.ar    1  UNL1       -0.1354
     13 N         141.1450  141.0616  169.9645 N.ar    1  UNL1       -0.2450
     14 H         136.9556  139.1895  170.0460 H       1  UNL1        0.1452
     15 H         137.3851  139.7554  171.5961 H       1  UNL1        0.1452
     16 H         141.9919  141.5019  170.2056 H       1  UNL1        0.1919
     17 C         145.0591  142.0824  163.4509 C.3     1  UNL1        0.0936
     18 C         144.8475  142.9953  162.2796 C.3     1  UNL1        0.1082
     19 C         140.2851  145.4799  162.1679 C.3     1  UNL1        0.1122
     20 N         141.7687  145.4971  162.3891 N.am    1  UNL1       -0.2872
     21 C         142.5663  144.2376  162.2238 C.2     1  UNL1        0.3008
     22 O         141.8804  142.9608  161.8373 O.2     1  UNL1       -0.2528
     23 N         144.0498  144.2549  162.4450 N.am    1  UNL1       -0.2875
     24 H         142.2189  146.3351  162.6428 H       1  UNL1        0.1510
     25 H         144.4999  145.0929  162.6987 H       1  UNL1        0.1510
     26 C         144.0905  139.8155  162.6305 C.3     1  UNL1        0.0768
     27 C         142.7736  139.4274  162.0263 C.3     1  UNL1        0.0437
     28 C         141.6761  138.8943  162.8988 C.ar    1  UNL1       -0.0207
     29 C         141.8712  137.6103  163.6492 C.ar    1  UNL1       -0.0034
     30 C         140.7737  137.0773  164.5216 C.ar    1  UNL1        0.0111
     31 C         139.4810  137.8283  164.6438 C.ar    1  UNL1        0.0577
     32 CL        138.3834  137.2952  165.5163 Cl      1  UNL1       -0.0822
     33 C         139.2859  139.1124  163.8935 C.ar    1  UNL1        0.0111
     34 C         140.3834  139.6454  163.0210 C.ar    1  UNL1       -0.0034
@<TRIPOS>BOND
     1    19    20    1
     2    20    21   am
     3    21    22    2
     4    21    23   am
     5    23    18    1
     6    18    17    1
     7    17     1    1
     8     1    26    1
     9    26    27    1
    10    27    28    1
    11    28    29   ar
    12    29    30   ar
    13    30    31   ar
    14    31    32    1
    15    31    33   ar
    16    33    34   ar
    17     1     2    1
    18     2     3    1
    19     3     4    1
    20     4     5    1
    21     5     8    1
    22     8     9   ar
    23     9    10   ar
    24    10    11    1
    25    10    12   ar
    26    12    13   ar
    27     5     6    1
    28     6     7    1
    29    34    28   ar
    30     7     2    1
    31    13     8   ar
    32    20    24    1
    33    23    25    1
    34    11    14    1
    35    11    15    1
    36    13    16    1
@<TRIPOS>MOLECULE
*****
 34 36 0 0 0
SMALL
GASTEIGER

@<TRIPOS>ATOM
      1 N         139.4313  139.0214  162.2433 N.3     1  UNL1       -0.2721
      2 C         139.5134  139.2163  163.7283 C.3     1  UNL1        0.0610
      3 C         140.4775  140.2120  164.3019 C.3     1  UNL1        0.0375
      4 C         140.5596  140.4069  165.7869 C.3     1  UNL1        0.0950
      5 N         139.6776  139.6061  166.6983 N.pl3   1  UNL1       -0.2785
      6 C         138.7135  138.6103  166.1247 C.3     1  UNL1        0.0950
      7 C         138.6314  138.4154  164.6397 C.3     1  UNL1        0.0375
      8 C         139.7597  139.8010  168.1833 C.ar    1  UNL1        0.2163
      9 N         140.9934  140.1566  168.9591 N.ar    1  UNL1       -0.1804
     10 C         140.6187  140.2498  170.4085 C.ar    1  UNL1        0.2331
     11 N         141.5463  140.5826  171.5393 N.pl3   1  UNL1       -0.3262
     12 N         139.1535  139.9519  170.5286 N.ar    1  UNL1       -0.1354
     13 N         138.6226  139.6745  169.1534 N.ar    1  UNL1       -0.2450
     14 H         142.4971  140.7637  171.3590 H       1  UNL1        0.1452
     15 H         141.2044  140.6200  172.4618 H       1  UNL1        0.1452
     16 H         137.6914  139.4490  168.9272 H       1  UNL1        0.1919
     17 C         140.4005  138.1090  161.5519 C.3     1  UNL1        0.0936
     18 C         141.8289  138.0494  162.0058 C.3     1  UNL1        0.1082
     19 C         145.6418  141.2304  163.5366 C.3     1  UNL1        0.1122
     20 N         144.6593  140.7883  162.4929 N.am    1  UNL1       -0.2872
     21 C         143.7354  139.6399  162.7712 C.2     1  UNL1        0.3008
     22 O         143.7940  138.9335  164.0931 O.2     1  UNL1       -0.2528
     23 N         142.7529  139.1979  161.7275 N.am    1  UNL1       -0.2875
     24 H         144.6208  141.2520  161.6252 H       1  UNL1        0.1510
     25 H         142.7144  139.6615  160.8599 H       1  UNL1        0.1510
     26 C         138.3800  139.7390  161.4497 C.3     1  UNL1        0.0768
     27 C         138.5247  141.2048  161.1658 C.3     1  UNL1        0.0437
     28 C         138.5212  142.1915  162.2956 C.ar    1  UNL1       -0.0207
     29 C         139.5858  143.2452  162.3744 C.ar    1  UNL1       -0.0034
     30 C         139.5822  144.2319  163.5042 C.ar    1  UNL1        0.0111
     31 C         138.5141  144.1648  164.5552 C.ar    1  UNL1        0.0577
     32 CL        138.5105  145.1515  165.6850 Cl      1  UNL1       -0.0822
     33 C         137.4495  143.1111  164.4764 C.ar    1  UNL1        0.0111
     34 C         137.4530  142.1244  163.3466 C.ar    1  UNL1       -0.0034
@<TRIPOS>BOND
     1    19    20    1
     2    20    21   am
     3    21    22    2
     4    21    23   am
     5    23    18    1
     6    18    17    1
     7    17     1    1
     8     1    26    1
     9    26    27    1
    10    27    28    1
    11    28    29   ar
    12    29    30   ar
    13    30    31   ar
    14    31    32    1
    15    31    33   ar
    16    33    34   ar
    17     1     2    1
    18     2     3    1
    19     3     4    1
    20     4     5    1
    21     5     8    1
    22     8     9   ar
    23     9    10   ar
    24    10    11    1
    25    10    12   ar
    26    12    13   ar
    27     5     6    1
    28     6     7    1
    29    34    28   ar
    30     7     2    1
    31    13     8   ar
    32    20    24    1
    33    23    25    1
    34    11    14    1
    35    11    15    1
    36    13    16    1
@<TRIPOS>MOLECULE
*****
 34 36 0 0 0
SMALL
GASTEIGER

@<TRIPOS>ATOM
      1 N         143.8354  139.9346  163.4167 N.3     1  UNL1       -0.2721
      2 C         142.9483  140.1019  164.6146 C.3     1  UNL1        0.0610
      3 C         143.4890  139.8453  165.9900 C.3     1  UNL1        0.0375
      4 C         142.6019  140.0126  167.1879 C.3     1  UNL1        0.0950
      5 N         141.1740  140.4363  167.0105 N.pl3   1  UNL1       -0.2785
      6 C         140.6332  140.6928  165.6350 C.3     1  UNL1        0.0950
      7 C         141.5203  140.5256  164.4371 C.3     1  UNL1        0.0375
      8 C         140.2868  140.6035  168.2084 C.ar    1  UNL1        0.2163
      9 N         139.2153  139.6519  168.6517 N.ar    1  UNL1       -0.1804
     10 C         138.5817  140.2120  169.8906 C.ar    1  UNL1        0.2331
     11 N         137.4644  139.5846  170.6703 N.pl3   1  UNL1       -0.3262
     12 N         139.2616  141.5097  170.2130 N.ar    1  UNL1       -0.1354
     13 N         140.3154  141.7516  169.1733 N.ar    1  UNL1       -0.2450
     14 H         137.0815  138.7261  170.3777 H       1  UNL1        0.1452
     15 H         137.1139  140.0312  171.4746 H       1  UNL1        0.1452
     16 H         140.9197  142.5277  169.1316 H       1  UNL1        0.1919
     17 C         143.9442  138.5980  162.7447 C.3     1  UNL1        0.0936
     18 C         143.0045  138.2393  161.6320 C.3     1  UNL1        0.1082
     19 C         137.8114  138.3325  161.7852 C.3     1  UNL1        0.1122
     20 N         139.1051  137.6092  162.0162 N.am    1  UNL1       -0.2872
     21 C         140.4079  138.2859  161.7086 C.2     1  UNL1        0.3008
     22 O         140.4172  139.6859  161.1702 O.2     1  UNL1       -0.2528
     23 N         141.7015  137.5626  161.9396 N.am    1  UNL1       -0.2875
     24 H         139.0990  136.6904  162.3696 H       1  UNL1        0.1510
     25 H         141.6954  136.6437  162.2930 H       1  UNL1        0.1510
     26 C         144.6138  141.1041  162.8907 C.3     1  UNL1        0.0768
     27 C         144.4880  142.4459  163.5492 C.3     1  UNL1        0.0437
     28 C         143.3760  143.3729  163.1564 C.ar    1  UNL1       -0.0207
     29 C         142.9745  143.4946  161.7163 C.ar    1  UNL1       -0.0034
     30 C         141.8625  144.4215  161.3235 C.ar    1  UNL1        0.0111
     31 C         141.1521  145.2268  162.3708 C.ar    1  UNL1        0.0577
     32 CL        140.0401  146.1538  161.9779 Cl      1  UNL1       -0.0822
     33 C         141.5537  145.1051  163.8109 C.ar    1  UNL1        0.0111
     34 C         142.6656  144.1782  164.2037 C.ar    1  UNL1       -0.0034
@<TRIPOS>BOND
     1    19    20    1
     2    20    21   am
     3    21    22    2
     4    21    23   am
     5    23    18    1
     6    18    17    1
     7    17     1    1
     8     1    26    1
     9    26    27    1
    10    27    28    1
    11    28    29   ar
    12    29    30   ar
    13    30    31   ar
    14    31    32    1
    15    31    33   ar
    16    33    34   ar
    17     1     2    1
    18     2     3    1
    19     3     4    1
    20     4     5    1
    21     5     8    1
    22     8     9   ar
    23     9    10   ar
    24    10    11    1
    25    10    12   ar
    26    12    13   ar
    27     5     6    1
    28     6     7    1
    29    34    28   ar
    30     7     2    1
    31    13     8   ar
    32    20    24    1
    33    23    25    1
    34    11    14    1
    35    11    15    1
    36    13    16    1
@<TRIPOS>MOLECULE
*****
 34 36 0 0 0
SMALL
GASTEIGER

@<TRIPOS>ATOM
      1 N         138.8925  139.3399  163.6102 N.3     1  UNL1       -0.2721
      2 C         139.3248  140.4649  162.7171 C.3     1  UNL1        0.0610
      3 C         138.5663  140.7553  161.4561 C.3     1  UNL1        0.0375
      4 C         138.9986  141.8802  160.5630 C.3     1  UNL1        0.0950
      5 N         140.1894  142.7148  160.9310 N.pl3   1  UNL1       -0.2785
      6 C         140.9480  142.4244  162.1921 C.3     1  UNL1        0.0950
      7 C         140.5157  141.2995  163.0852 C.3     1  UNL1        0.0375
      8 C         140.6217  143.8398  160.0379 C.ar    1  UNL1        0.2163
      9 N         139.7575  144.5595  159.0453 N.ar    1  UNL1       -0.1804
     10 C         140.5959  145.6071  158.3746 C.ar    1  UNL1        0.2331
     11 N         140.1331  146.5597  157.3123 N.pl3   1  UNL1       -0.3262
     12 N         141.9781  145.5348  158.9527 N.ar    1  UNL1       -0.1354
     13 N         141.9941  144.4426  159.9806 N.ar    1  UNL1       -0.2450
     14 H         139.2012  146.5297  156.9963 H       1  UNL1        0.1452
     15 H         140.7613  147.2149  156.9312 H       1  UNL1        0.1452
     16 H         142.7692  144.1693  160.5226 H       1  UNL1        0.1919
     17 C         138.3224  139.6351  164.9658 C.3     1  UNL1        0.0936
     18 C         138.4477  138.6257  166.0682 C.3     1  UNL1        0.1082
     19 C         140.1545  140.8891  170.4229 C.3     1  UNL1        0.1122
     20 N         139.0747  140.1701  169.6697 N.am    1  UNL1       -0.2872
     21 C         139.3011  139.7574  168.2456 C.2     1  UNL1        0.3008
     22 O         140.6072  140.0636  167.5745 O.2     1  UNL1       -0.2528
     23 N         138.2213  139.0385  167.4924 N.am    1  UNL1       -0.2875
     24 H         138.2175  139.9692  170.1102 H       1  UNL1        0.1510
     25 H         137.3641  138.8375  167.9329 H       1  UNL1        0.1510
     26 C         139.0304  137.9196  163.1476 C.3     1  UNL1        0.0768
     27 C         140.2820  137.1504  163.4504 C.3     1  UNL1        0.0437
     28 C         141.5800  137.8766  163.6454 C.ar    1  UNL1       -0.0207
     29 C         142.4398  138.2069  162.4615 C.ar    1  UNL1       -0.0034
     30 C         143.7378  138.9330  162.6566 C.ar    1  UNL1        0.0111
     31 C         144.1759  139.3288  164.0355 C.ar    1  UNL1        0.0577
     32 CL        145.4739  140.0550  164.2305 Cl      1  UNL1       -0.0822
     33 C         143.3161  138.9985  165.2194 C.ar    1  UNL1        0.0111
     34 C         142.0181  138.2724  165.0243 C.ar    1  UNL1       -0.0034
@<TRIPOS>BOND
     1    19    20    1
     2    20    21   am
     3    21    22    2
     4    21    23   am
     5    23    18    1
     6    18    17    1
     7    17     1    1
     8     1    26    1
     9    26    27    1
    10    27    28    1
    11    28    29   ar
    12    29    30   ar
    13    30    31   ar
    14    31    32    1
    15    31    33   ar
    16    33    34   ar
    17     1     2    1
    18     2     3    1
    19     3     4    1
    20     4     5    1
    21     5     8    1
    22     8     9   ar
    23     9    10   ar
    24    10    11    1
    25    10    12   ar
    26    12    13   ar
    27     5     6    1
    28     6     7    1
    29    34    28   ar
    30     7     2    1
    31    13     8   ar
    32    20    24    1
    33    23    25    1
    34    11    14    1
    35    11    15    1
    36    13    16    1
