@<TRIPOS>MOLECULE
*****
 42 45 0 0 0
SMALL
GASTEIGER

@<TRIPOS>ATOM
      1 C         139.0407  141.1077  160.5771 C.3     1  UNL1        0.0702
      2 C         139.3522  140.2437  159.3912 C.3     1  UNL1        0.0100
      3 C         139.5360  141.1384  158.2014 C.3     1  UNL1        0.0164
      4 C         139.3382  142.5553  158.6519 C.3     1  UNL1        0.0580
      5 C         139.0320  142.5364  160.1202 C.3     1  UNL1        0.0246
      6 N         139.4303  143.7768  157.7861 N.3     1  UNL1       -0.2739
      7 C         140.2043  144.9726  158.2560 C.3     1  UNL1        0.0724
      8 C         140.2964  146.1940  157.3902 C.3     1  UNL1        0.0217
      9 C         139.6144  146.2197  156.0545 C.3     1  UNL1        0.0251
     10 C         138.8403  145.0238  155.5846 C.3     1  UNL1        0.0217
     11 C         138.7482  143.8024  156.4503 C.3     1  UNL1        0.0724
     12 C         139.7065  147.4412  155.1887 C.ar    1  UNL1       -0.0224
     13 C         140.2642  147.3359  153.8002 C.ar    1  UNL1       -0.0043
     14 C         140.3563  148.5574  152.9345 C.ar    1  UNL1       -0.0003
     15 C         139.8906  149.8840  153.4572 C.ar    1  UNL1        0.0011
     16 C         139.3329  149.9892  154.8457 C.ar    1  UNL1        0.0137
     17 C         139.2408  148.7678  155.7115 C.ar    1  UNL1       -0.0031
     18 C         138.8673  151.3159  155.3684 C.2     1  UNL1        0.0729
     19 O         139.0359  151.6507  156.8208 O.co2   1  UNL1       -0.5446
     20 O         138.2331  152.3076  154.4388 O.co2   1  UNL1       -0.5446
     21 C         138.7169  141.6990  161.9171 C.2     1  UNL1        0.2218
     22 O         137.2867  141.8643  162.3381 O.2     1  UNL1       -0.2751
     23 N         139.8233  142.1248  162.8361 N.am    1  UNL1       -0.3004
     24 H         140.7620  142.0163  162.5598 H       1  UNL1        0.1497
     25 C         139.4995  142.7161  164.1761 C.3     1  UNL1        0.1163
     26 C         139.5078  141.8491  165.4002 C.ar    1  UNL1       -0.0027
     27 C         138.8268  140.5128  165.3775 C.ar    1  UNL1        0.0012
     28 C         138.8351  139.6459  166.6016 C.ar    1  UNL1        0.0711
     29 C         139.5244  140.1153  167.8484 C.ar    1  UNL1        0.0077
     30 C         140.2054  141.4516  167.8711 C.ar    1  UNL1        0.0711
     31 C         140.1971  142.3185  166.6470 C.ar    1  UNL1        0.0012
     32 C         138.1542  138.3096  166.5789 C.3     1  UNL1        0.4186
     33 F         137.4732  136.9732  166.5562 F       1  UNL1       -0.1659
     34 F         138.9404  137.9296  165.3593 F       1  UNL1       -0.1659
     35 F         137.3679  138.6895  167.7985 F       1  UNL1       -0.1659
     36 C         140.8947  141.9210  169.1179 C.3     1  UNL1        0.4186
     37 F         141.5840  142.3905  170.3647 F       1  UNL1       -0.1659
     38 F         140.4935  143.3328  168.8082 F       1  UNL1       -0.1659
     39 F         141.2960  140.5093  169.4276 F       1  UNL1       -0.1659
     40 C         137.7054  139.0152  161.3439 C.3     1  UNL1        0.0005
     41 C         138.9817  139.8027  161.3142 C.3     1  UNL1        0.0082
     42 C         140.1990  139.2851  162.0215 C.3     1  UNL1        0.0005
@<TRIPOS>UNITY_ATOM_ATTR
19 1
charge -1
@<TRIPOS>BOND
     1    40    41    1
     2    41    42    1
     3     1    41    1
     4     1    21    1
     5    21    22    2
     6    21    23   am
     7    23    25    1
     8    25    26    1
     9    26    27   ar
    10    27    28   ar
    11    28    32    1
    12    32    33    1
    13    32    34    1
    14    32    35    1
    15    28    29   ar
    16    29    30   ar
    17    30    36    1
    18    36    37    1
    19    36    38    1
    20    36    39    1
    21    30    31   ar
    22     1     2    1
    23     2     3    1
    24     3     4    1
    25     4     6    1
    26     6     7    1
    27     7     8    1
    28     8     9    1
    29     9    12    1
    30    12    13   ar
    31    13    14   ar
    32    14    15   ar
    33    15    16   ar
    34    16    18    1
    35    18    19   ar
    36    18    20   ar
    37    16    17   ar
    38     9    10    1
    39    10    11    1
    40     4     5    1
    41     5     1    1
    42    31    26   ar
    43    11     6    1
    44    17    12   ar
    45    23    24    1
@<TRIPOS>MOLECULE
*****
 42 45 0 0 0
SMALL
GASTEIGER

@<TRIPOS>ATOM
      1 C         143.5039  142.6881  162.8787 C.3     1  UNL1        0.0702
      2 C         144.5866  143.3222  162.0567 C.3     1  UNL1        0.0100
      3 C         144.6943  142.5632  160.7674 C.3     1  UNL1        0.0164
      4 C         143.6783  141.4600  160.7925 C.3     1  UNL1        0.0580
      5 C         142.9426  141.5372  162.0974 C.3     1  UNL1        0.0246
      6 N         143.4399  140.4560  159.7040 N.3     1  UNL1       -0.2739
      7 C         143.6309  140.8465  158.2684 C.3     1  UNL1        0.0724
      8 C         143.3924  139.8425  157.1798 C.3     1  UNL1        0.0217
      9 C         142.9629  138.4478  157.5268 C.3     1  UNL1        0.0251
     10 C         142.7720  138.0572  158.9625 C.3     1  UNL1        0.0217
     11 C         143.0104  139.0613  160.0511 C.3     1  UNL1        0.0724
     12 C         142.7245  137.4437  156.4383 C.ar    1  UNL1       -0.0224
     13 C         142.6350  137.8931  155.0100 C.ar    1  UNL1       -0.0043
     14 C         142.3965  136.8890  153.9214 C.ar    1  UNL1       -0.0003
     15 C         142.2476  135.4356  154.2611 C.ar    1  UNL1        0.0011
     16 C         142.3371  134.9862  155.6895 C.ar    1  UNL1        0.0137
     17 C         142.5756  135.9903  156.7781 C.ar    1  UNL1       -0.0031
     18 C         142.1882  133.5328  156.0293 C.2     1  UNL1        0.0729
     19 O         141.4415  132.6190  155.1034 O.co2   1  UNL1       -0.5446
     20 O         142.7858  132.9933  157.2948 O.co2   1  UNL1       -0.5446
     21 C         142.4945  142.2766  163.9091 C.2     1  UNL1        0.2218
     22 O         141.2179  143.0497  164.0590 O.2     1  UNL1       -0.2751
     23 N         142.7617  141.0920  164.7896 N.am    1  UNL1       -0.3004
     24 H         143.5997  140.5846  164.6913 H       1  UNL1        0.1497
     25 C         141.7523  140.6805  165.8200 C.3     1  UNL1        0.1163
     26 C         140.6154  139.7795  165.4382 C.ar    1  UNL1       -0.0027
     27 C         140.4559  139.3354  164.0144 C.ar    1  UNL1        0.0012
     28 C         139.3189  138.4345  163.6327 C.ar    1  UNL1        0.0711
     29 C         138.3415  137.9777  164.6749 C.ar    1  UNL1        0.0077
     30 C         138.5011  138.4218  166.0987 C.ar    1  UNL1        0.0711
     31 C         139.6380  139.3227  166.4804 C.ar    1  UNL1        0.0012
     32 C         139.1594  137.9904  162.2089 C.3     1  UNL1        0.4186
     33 F         138.9998  137.5463  160.7851 F       1  UNL1       -0.1659
     34 F         137.7751  138.5675  162.1840 F       1  UNL1       -0.1659
     35 F         140.5437  137.4133  162.2337 F       1  UNL1       -0.1659
     36 C         137.5237  137.9650  167.1408 C.3     1  UNL1        0.4186
     37 F         136.5463  137.5082  168.1829 F       1  UNL1       -0.1659
     38 F         137.4279  136.6291  166.4653 F       1  UNL1       -0.1659
     39 F         137.6194  139.3009  167.8162 F       1  UNL1       -0.1659
     40 C         143.5013  145.1843  163.5988 C.3     1  UNL1        0.0005
     41 C         143.8542  143.7529  163.8754 C.3     1  UNL1        0.0082
     42 C         144.5575  143.3864  165.1486 C.3     1  UNL1        0.0005
@<TRIPOS>UNITY_ATOM_ATTR
19 1
charge -1
@<TRIPOS>BOND
     1    40    41    1
     2    41    42    1
     3     1    41    1
     4     1    21    1
     5    21    22    2
     6    21    23   am
     7    23    25    1
     8    25    26    1
     9    26    27   ar
    10    27    28   ar
    11    28    32    1
    12    32    33    1
    13    32    34    1
    14    32    35    1
    15    28    29   ar
    16    29    30   ar
    17    30    36    1
    18    36    37    1
    19    36    38    1
    20    36    39    1
    21    30    31   ar
    22     1     2    1
    23     2     3    1
    24     3     4    1
    25     4     6    1
    26     6     7    1
    27     7     8    1
    28     8     9    1
    29     9    12    1
    30    12    13   ar
    31    13    14   ar
    32    14    15   ar
    33    15    16   ar
    34    16    18    1
    35    18    19   ar
    36    18    20   ar
    37    16    17   ar
    38     9    10    1
    39    10    11    1
    40     4     5    1
    41     5     1    1
    42    31    26   ar
    43    11     6    1
    44    17    12   ar
    45    23    24    1
@<TRIPOS>MOLECULE
*****
 42 45 0 0 0
SMALL
GASTEIGER

@<TRIPOS>ATOM
      1 C         138.9517  141.2436  160.1040 C.3     1  UNL1        0.0702
      2 C         138.8246  140.4119  158.8622 C.3     1  UNL1        0.0100
      3 C         138.9209  141.3284  157.6786 C.3     1  UNL1        0.0164
      4 C         139.1076  142.7264  158.1889 C.3     1  UNL1        0.0580
      5 C         139.1267  142.6741  159.6879 C.3     1  UNL1        0.0246
      6 N         139.2502  143.9603  157.3479 N.3     1  UNL1       -0.2739
      7 C         138.4824  144.0869  156.0656 C.3     1  UNL1        0.0724
      8 C         138.6251  145.3207  155.2246 C.3     1  UNL1        0.0217
      9 C         139.5355  146.4281  155.6660 C.3     1  UNL1        0.0251
     10 C         140.3034  146.3015  156.9484 C.3     1  UNL1        0.0217
     11 C         140.1607  145.0676  157.7894 C.3     1  UNL1        0.0724
     12 C         139.6781  147.6619  154.8250 C.ar    1  UNL1       -0.0224
     13 C         140.2937  147.5722  153.4600 C.ar    1  UNL1       -0.0043
     14 C         140.4363  148.8060  152.6191 C.ar    1  UNL1       -0.0003
     15 C         139.9634  150.1296  153.1430 C.ar    1  UNL1        0.0011
     16 C         139.3478  150.2193  154.5080 C.ar    1  UNL1        0.0137
     17 C         139.2052  148.9855  155.3490 C.ar    1  UNL1       -0.0031
     18 C         138.8749  151.5429  155.0320 C.2     1  UNL1        0.0729
     19 O         138.2041  152.5179  154.1104 O.co2   1  UNL1       -0.5446
     20 O         139.0729  151.8914  156.4774 O.co2   1  UNL1       -0.5446
     21 C         139.0465  141.8006  161.4934 C.2     1  UNL1        0.2218
     22 O         140.3903  142.0533  162.1102 O.2     1  UNL1       -0.2751
     23 N         137.7974  142.1050  162.2663 N.am    1  UNL1       -0.3004
     24 H         136.9154  141.9391  161.8615 H       1  UNL1        0.1497
     25 C         137.8921  142.6619  163.6558 C.3     1  UNL1        0.1163
     26 C         138.4759  141.8301  164.7591 C.ar    1  UNL1       -0.0027
     27 C         139.5065  142.4180  165.6768 C.ar    1  UNL1        0.0012
     28 C         140.0902  141.5862  166.7800 C.ar    1  UNL1        0.0711
     29 C         139.6434  140.1664  166.9656 C.ar    1  UNL1        0.0077
     30 C         138.6128  139.5784  166.0480 C.ar    1  UNL1        0.0711
     31 C         138.0290  140.4103  164.9447 C.ar    1  UNL1        0.0012
     32 C         141.1209  142.1741  167.6977 C.3     1  UNL1        0.4186
     33 F         142.1515  142.7620  168.6154 F       1  UNL1       -0.1659
     34 F         141.9941  140.9729  167.4866 F       1  UNL1       -0.1659
     35 F         140.2477  143.3753  167.9089 F       1  UNL1       -0.1659
     36 C         138.1659  138.1586  166.2335 C.3     1  UNL1        0.4186
     37 F         137.7190  136.7388  166.4191 F       1  UNL1       -0.1659
     38 F         137.2962  138.5822  167.3799 F       1  UNL1       -0.1659
     39 F         139.0356  137.7350  165.0872 F       1  UNL1       -0.1659
     40 C         137.4277  139.3699  161.0613 C.3     1  UNL1        0.0005
     41 C         138.7966  139.9296  160.8105 C.3     1  UNL1        0.0082
     42 C         140.0104  139.1752  161.2664 C.3     1  UNL1        0.0005
@<TRIPOS>UNITY_ATOM_ATTR
19 1
charge -1
@<TRIPOS>BOND
     1    40    41    1
     2    41    42    1
     3     1    41    1
     4     1    21    1
     5    21    22    2
     6    21    23   am
     7    23    25    1
     8    25    26    1
     9    26    27   ar
    10    27    28   ar
    11    28    32    1
    12    32    33    1
    13    32    34    1
    14    32    35    1
    15    28    29   ar
    16    29    30   ar
    17    30    36    1
    18    36    37    1
    19    36    38    1
    20    36    39    1
    21    30    31   ar
    22     1     2    1
    23     2     3    1
    24     3     4    1
    25     4     6    1
    26     6     7    1
    27     7     8    1
    28     8     9    1
    29     9    12    1
    30    12    13   ar
    31    13    14   ar
    32    14    15   ar
    33    15    16   ar
    34    16    18    1
    35    18    19   ar
    36    18    20   ar
    37    16    17   ar
    38     9    10    1
    39    10    11    1
    40     4     5    1
    41     5     1    1
    42    31    26   ar
    43    11     6    1
    44    17    12   ar
    45    23    24    1
@<TRIPOS>MOLECULE
*****
 42 45 0 0 0
SMALL
GASTEIGER

@<TRIPOS>ATOM
      1 C         143.4457  142.8975  163.1839 C.3     1  UNL1        0.0702
      2 C         144.5417  143.5278  162.3767 C.3     1  UNL1        0.0100
      3 C         144.6641  142.7686  161.0889 C.3     1  UNL1        0.0164
      4 C         143.6439  141.6691  161.1001 C.3     1  UNL1        0.0580
      5 C         142.8908  141.7488  162.3949 C.3     1  UNL1        0.0246
      6 N         143.4166  140.6661  160.0082 N.3     1  UNL1       -0.2739
      7 C         143.7913  140.9986  158.5944 C.3     1  UNL1        0.0724
      8 C         143.5640  139.9955  157.5025 C.3     1  UNL1        0.0217
      9 C         142.9619  138.6599  157.8244 C.3     1  UNL1        0.0251
     10 C         142.5871  138.3274  159.2383 C.3     1  UNL1        0.0217
     11 C         142.8144  139.3305  160.3302 C.3     1  UNL1        0.0724
     12 C         142.7346  137.6569  156.7325 C.ar    1  UNL1       -0.0224
     13 C         142.5177  138.1196  155.3223 C.ar    1  UNL1       -0.0043
     14 C         142.2904  137.1166  154.2304 C.ar    1  UNL1       -0.0003
     15 C         142.2799  135.6508  154.5488 C.ar    1  UNL1        0.0011
     16 C         142.4967  135.1880  155.9591 C.ar    1  UNL1        0.0137
     17 C         142.7241  136.1911  157.0510 C.ar    1  UNL1       -0.0031
     18 C         142.4862  133.7222  156.2775 C.2     1  UNL1        0.0729
     19 O         143.3020  133.1975  157.4216 O.co2   1  UNL1       -0.5446
     20 O         141.6600  132.7813  155.4517 O.co2   1  UNL1       -0.5446
     21 C         142.4209  142.4896  164.2004 C.2     1  UNL1        0.2218
     22 O         141.1530  143.2778  164.3452 O.2     1  UNL1       -0.2751
     23 N         142.6640  141.2933  165.0722 N.am    1  UNL1       -0.3004
     24 H         143.4962  140.7759  164.9771 H       1  UNL1        0.1497
     25 C         141.6393  140.8853  166.0887 C.3     1  UNL1        0.1163
     26 C         140.5416  139.9365  165.7081 C.ar    1  UNL1       -0.0027
     27 C         139.5458  139.4899  166.7371 C.ar    1  UNL1        0.0012
     28 C         138.4482  138.5411  166.3564 C.ar    1  UNL1        0.0711
     29 C         138.3464  138.0389  164.9467 C.ar    1  UNL1        0.0077
     30 C         139.3421  138.4854  163.9176 C.ar    1  UNL1        0.0711
     31 C         140.4397  139.4342  164.2983 C.ar    1  UNL1        0.0012
     32 C         137.4524  138.0945  167.3855 C.3     1  UNL1        0.4186
     33 F         136.4566  137.6480  168.4146 F       1  UNL1       -0.1659
     34 F         137.7169  139.3383  168.1811 F       1  UNL1       -0.1659
     35 F         137.1879  136.8507  166.5899 F       1  UNL1       -0.1659
     36 C         139.2402  137.9832  162.5079 C.3     1  UNL1        0.4186
     37 F         139.1384  137.4809  161.0982 F       1  UNL1       -0.1659
     38 F         137.9666  138.7541  162.3253 F       1  UNL1       -0.1659
     39 F         140.5139  137.2122  162.6905 F       1  UNL1       -0.1659
     40 C         144.5234  143.6002  165.4410 C.3     1  UNL1        0.0005
     41 C         143.7863  143.9609  164.1854 C.3     1  UNL1        0.0082
     42 C         143.3899  145.3851  163.9314 C.3     1  UNL1        0.0005
@<TRIPOS>UNITY_ATOM_ATTR
19 1
charge -1
@<TRIPOS>BOND
     1    40    41    1
     2    41    42    1
     3     1    41    1
     4     1    21    1
     5    21    22    2
     6    21    23   am
     7    23    25    1
     8    25    26    1
     9    26    27   ar
    10    27    28   ar
    11    28    32    1
    12    32    33    1
    13    32    34    1
    14    32    35    1
    15    28    29   ar
    16    29    30   ar
    17    30    36    1
    18    36    37    1
    19    36    38    1
    20    36    39    1
    21    30    31   ar
    22     1     2    1
    23     2     3    1
    24     3     4    1
    25     4     6    1
    26     6     7    1
    27     7     8    1
    28     8     9    1
    29     9    12    1
    30    12    13   ar
    31    13    14   ar
    32    14    15   ar
    33    15    16   ar
    34    16    18    1
    35    18    19   ar
    36    18    20   ar
    37    16    17   ar
    38     9    10    1
    39    10    11    1
    40     4     5    1
    41     5     1    1
    42    31    26   ar
    43    11     6    1
    44    17    12   ar
    45    23    24    1
@<TRIPOS>MOLECULE
*****
 42 45 0 0 0
SMALL
GASTEIGER

@<TRIPOS>ATOM
      1 C         143.2618  142.6641  162.6438 C.3     1  UNL1        0.0702
      2 C         144.5241  143.1250  161.9774 C.3     1  UNL1        0.0100
      3 C         144.7338  142.2864  160.7516 C.3     1  UNL1        0.0164
      4 C         143.6013  141.3072  160.6604 C.3     1  UNL1        0.0580
      5 C         142.6915  141.5406  161.8299 C.3     1  UNL1        0.0246
      6 N         143.4118  140.2757  159.5880 N.3     1  UNL1       -0.2739
      7 C         142.9713  138.8885  159.9510 C.3     1  UNL1        0.0724
      8 C         142.7818  137.8570  158.8786 C.3     1  UNL1        0.0217
      9 C         143.0327  138.2126  157.4431 C.3     1  UNL1        0.0251
     10 C         143.4732  139.5998  157.0801 C.3     1  UNL1        0.0217
     11 C         143.6627  140.6313  158.1525 C.3     1  UNL1        0.0724
     12 C         142.8432  137.1811  156.3707 C.ar    1  UNL1       -0.0224
     13 C         142.4249  137.6001  154.9926 C.ar    1  UNL1       -0.0043
     14 C         142.2354  136.5686  153.9202 C.ar    1  UNL1       -0.0003
     15 C         142.4642  135.1180  154.2260 C.ar    1  UNL1        0.0011
     16 C         142.8825  134.6990  155.6043 C.ar    1  UNL1        0.0137
     17 C         143.0720  135.7305  156.6766 C.ar    1  UNL1       -0.0031
     18 C         143.1113  133.2484  155.9101 C.2     1  UNL1        0.0729
     19 O         141.9567  132.3724  156.2967 O.co2   1  UNL1       -0.5446
     20 O         144.4945  132.6739  155.8292 O.co2   1  UNL1       -0.5446
     21 C         142.0665  142.4277  163.5187 C.2     1  UNL1        0.2218
     22 O         141.0445  143.5104  163.7009 O.2     1  UNL1       -0.2751
     23 N         141.8932  141.1085  164.2114 N.am    1  UNL1       -0.3004
     24 H         142.5639  140.3978  164.0918 H       1  UNL1        0.1497
     25 C         140.6979  140.8721  165.0862 C.3     1  UNL1        0.1163
     26 C         140.8356  140.9391  166.5784 C.ar    1  UNL1       -0.0027
     27 C         139.7104  140.4785  167.4569 C.ar    1  UNL1        0.0012
     28 C         139.8481  140.5456  168.9490 C.ar    1  UNL1        0.0711
     29 C         141.1110  141.0733  169.5627 C.ar    1  UNL1        0.0077
     30 C         142.2362  141.5339  168.6842 C.ar    1  UNL1        0.0711
     31 C         142.0985  141.4669  167.1921 C.ar    1  UNL1        0.0012
     32 C         138.7229  140.0849  169.8275 C.3     1  UNL1        0.4186
     33 F         137.5977  139.6243  170.7061 F       1  UNL1       -0.1659
     34 F         139.4088  140.6833  171.0197 F       1  UNL1       -0.1659
     35 F         138.0370  139.4865  168.6353 F       1  UNL1       -0.1659
     36 C         143.4991  142.0616  169.2979 C.3     1  UNL1        0.4186
     37 F         144.7620  142.5893  169.9116 F       1  UNL1       -0.1659
     38 F         143.8730  142.6899  167.9882 F       1  UNL1       -0.1659
     39 F         143.1252  141.4333  170.6077 F       1  UNL1       -0.1659
     40 C         143.2659  145.1705  163.3275 C.3     1  UNL1        0.0005
     41 C         143.5822  143.7381  163.6407 C.3     1  UNL1        0.0082
     42 C         144.2189  143.3798  164.9507 C.3     1  UNL1        0.0005
@<TRIPOS>UNITY_ATOM_ATTR
19 1
charge -1
@<TRIPOS>BOND
     1    40    41    1
     2    41    42    1
     3     1    41    1
     4     1    21    1
     5    21    22    2
     6    21    23   am
     7    23    25    1
     8    25    26    1
     9    26    27   ar
    10    27    28   ar
    11    28    32    1
    12    32    33    1
    13    32    34    1
    14    32    35    1
    15    28    29   ar
    16    29    30   ar
    17    30    36    1
    18    36    37    1
    19    36    38    1
    20    36    39    1
    21    30    31   ar
    22     1     2    1
    23     2     3    1
    24     3     4    1
    25     4     6    1
    26     6     7    1
    27     7     8    1
    28     8     9    1
    29     9    12    1
    30    12    13   ar
    31    13    14   ar
    32    14    15   ar
    33    15    16   ar
    34    16    18    1
    35    18    19   ar
    36    18    20   ar
    37    16    17   ar
    38     9    10    1
    39    10    11    1
    40     4     5    1
    41     5     1    1
    42    31    26   ar
    43    11     6    1
    44    17    12   ar
    45    23    24    1
@<TRIPOS>MOLECULE
*****
 42 45 0 0 0
SMALL
GASTEIGER

@<TRIPOS>ATOM
      1 C         143.2857  142.6919  162.5071 C.3     1  UNL1        0.0702
      2 C         144.5514  143.1507  161.8456 C.3     1  UNL1        0.0100
      3 C         144.7480  142.3331  160.6036 C.3     1  UNL1        0.0164
      4 C         143.6039  141.3689  160.4973 C.3     1  UNL1        0.0580
      5 C         142.7001  141.5907  161.6738 C.3     1  UNL1        0.0246
      6 N         143.3994  140.3601  159.4062 N.3     1  UNL1       -0.2739
      7 C         143.8606  140.6605  158.0109 C.3     1  UNL1        0.0724
      8 C         143.6561  139.6517  156.9198 C.3     1  UNL1        0.0217
      9 C         142.9903  138.3424  157.2240 C.3     1  UNL1        0.0251
     10 C         142.5291  138.0420  158.6195 C.3     1  UNL1        0.0217
     11 C         142.7336  139.0508  159.7105 C.3     1  UNL1        0.0724
     12 C         142.7858  137.3336  156.1329 C.ar    1  UNL1       -0.0224
     13 C         142.4479  137.7889  154.7443 C.ar    1  UNL1       -0.0043
     14 C         142.2434  136.7801  153.6532 C.ar    1  UNL1       -0.0003
     15 C         142.3768  135.3160  153.9508 C.ar    1  UNL1        0.0011
     16 C         142.7148  134.8607  155.3395 C.ar    1  UNL1        0.0137
     17 C         142.9193  135.8695  156.4306 C.ar    1  UNL1       -0.0031
     18 C         142.8482  133.3966  155.6371 C.2     1  UNL1        0.0729
     19 O         142.6271  132.8917  157.0321 O.co2   1  UNL1       -0.5446
     20 O         143.2028  132.4374  154.5397 O.co2   1  UNL1       -0.5446
     21 C         142.0902  142.4528  163.3809 C.2     1  UNL1        0.2218
     22 O         141.0505  143.5224  163.5385 O.2     1  UNL1       -0.2751
     23 N         141.9345  141.1441  164.0972 N.am    1  UNL1       -0.3004
     24 H         142.6169  140.4420  163.9938 H       1  UNL1        0.1497
     25 C         140.7390  140.9050  164.9710 C.3     1  UNL1        0.1163
     26 C         140.8736  140.9799  166.4632 C.ar    1  UNL1       -0.0027
     27 C         142.1362  141.5083  167.0767 C.ar    1  UNL1        0.0012
     28 C         142.2708  141.5831  168.5688 C.ar    1  UNL1        0.0711
     29 C         141.1427  141.1295  169.4472 C.ar    1  UNL1        0.0077
     30 C         139.8801  140.6012  168.8337 C.ar    1  UNL1        0.0711
     31 C         139.7455  140.5263  167.3416 C.ar    1  UNL1        0.0012
     32 C         143.5335  142.1115  169.1824 C.3     1  UNL1        0.4186
     33 F         144.7961  142.6399  169.7960 F       1  UNL1       -0.1659
     34 F         143.1950  141.4233  170.4715 F       1  UNL1       -0.1659
     35 F         143.8720  142.7997  167.8933 F       1  UNL1       -0.1659
     36 C         138.7520  140.1476  169.7122 C.3     1  UNL1        0.4186
     37 F         137.6239  139.6941  170.5907 F       1  UNL1       -0.1659
     38 F         139.4011  140.8133  170.8893 F       1  UNL1       -0.1659
     39 F         138.1029  139.4820  168.5350 F       1  UNL1       -0.1659
     40 C         143.2666  145.1772  163.2636 C.3     1  UNL1        0.0005
     41 C         143.6214  143.7431  163.5230 C.3     1  UNL1        0.0082
     42 C         144.3119  143.3602  164.7985 C.3     1  UNL1        0.0005
@<TRIPOS>UNITY_ATOM_ATTR
19 1
charge -1
@<TRIPOS>BOND
     1    40    41    1
     2    41    42    1
     3     1    41    1
     4     1    21    1
     5    21    22    2
     6    21    23   am
     7    23    25    1
     8    25    26    1
     9    26    27   ar
    10    27    28   ar
    11    28    32    1
    12    32    33    1
    13    32    34    1
    14    32    35    1
    15    28    29   ar
    16    29    30   ar
    17    30    36    1
    18    36    37    1
    19    36    38    1
    20    36    39    1
    21    30    31   ar
    22     1     2    1
    23     2     3    1
    24     3     4    1
    25     4     6    1
    26     6     7    1
    27     7     8    1
    28     8     9    1
    29     9    12    1
    30    12    13   ar
    31    13    14   ar
    32    14    15   ar
    33    15    16   ar
    34    16    18    1
    35    18    19   ar
    36    18    20   ar
    37    16    17   ar
    38     9    10    1
    39    10    11    1
    40     4     5    1
    41     5     1    1
    42    31    26   ar
    43    11     6    1
    44    17    12   ar
    45    23    24    1
@<TRIPOS>MOLECULE
*****
 42 45 0 0 0
SMALL
GASTEIGER

@<TRIPOS>ATOM
      1 C         143.5487  142.9373  163.3325 C.3     1  UNL1        0.0702
      2 C         144.6877  143.3803  162.4629 C.3     1  UNL1        0.0100
      3 C         144.7412  142.4717  161.2706 C.3     1  UNL1        0.0164
      4 C         143.6352  141.4672  161.4033 C.3     1  UNL1        0.0580
      5 C         142.8982  141.7549  162.6777 C.3     1  UNL1        0.0246
      6 N         143.3213  140.3679  160.4322 N.3     1  UNL1       -0.2739
      7 C         143.0321  140.6948  158.9971 C.3     1  UNL1        0.0724
      8 C         142.7182  139.5955  158.0260 C.3     1  UNL1        0.0217
      9 C         142.6935  138.1692  158.4900 C.3     1  UNL1        0.0251
     10 C         142.9828  137.8424  159.9251 C.3     1  UNL1        0.0217
     11 C         143.2967  138.9416  160.8962 C.3     1  UNL1        0.0724
     12 C         142.3797  137.0700  157.5189 C.ar    1  UNL1       -0.0224
     13 C         141.4196  137.3155  156.3928 C.ar    1  UNL1       -0.0043
     14 C         141.1057  136.2162  155.4217 C.ar    1  UNL1       -0.0003
     15 C         141.7519  134.8714  155.5767 C.ar    1  UNL1        0.0011
     16 C         142.7120  134.6259  156.7028 C.ar    1  UNL1        0.0137
     17 C         143.0259  135.7252  157.6739 C.ar    1  UNL1       -0.0031
     18 C         143.3581  133.2811  156.8577 C.2     1  UNL1        0.0729
     19 O         142.7423  132.0745  156.2137 O.co2   1  UNL1       -0.5446
     20 O         144.6201  133.1429  157.6567 O.co2   1  UNL1       -0.5446
     21 C         142.4998  142.7325  164.3851 C.2     1  UNL1        0.2218
     22 O         142.7503  141.7828  165.5188 O.2     1  UNL1       -0.2751
     23 N         141.2003  143.4774  164.3039 N.am    1  UNL1       -0.3004
     24 H         141.0358  144.1007  163.5598 H       1  UNL1        0.1497
     25 C         140.1514  143.2726  165.3564 C.3     1  UNL1        0.1163
     26 C         139.8643  141.8930  165.8707 C.ar    1  UNL1       -0.0027
     27 C         139.4504  140.8092  164.9199 C.ar    1  UNL1        0.0012
     28 C         139.1633  139.4297  165.4343 C.ar    1  UNL1        0.0711
     29 C         139.2900  139.1341  166.8994 C.ar    1  UNL1        0.0077
     30 C         139.7039  140.2179  167.8501 C.ar    1  UNL1        0.0711
     31 C         139.9910  141.5974  167.3358 C.ar    1  UNL1        0.0012
     32 C         138.7494  138.3458  164.4835 C.3     1  UNL1        0.4186
     33 F         138.3355  137.2620  163.5327 F       1  UNL1       -0.1659
     34 F         138.4990  139.3740  163.4204 F       1  UNL1       -0.1659
     35 F         138.9998  137.3177  165.5465 F       1  UNL1       -0.1659
     36 C         139.8306  139.9222  169.3152 C.3     1  UNL1        0.4186
     37 F         139.9573  139.6266  170.7803 F       1  UNL1       -0.1659
     38 F         141.2708  139.5533  169.1162 F       1  UNL1       -0.1659
     39 F         138.3904  140.2912  169.5143 F       1  UNL1       -0.1659
     40 C         144.7693  143.8080  165.4542 C.3     1  UNL1        0.0005
     41 C         143.9799  144.0768  164.2074 C.3     1  UNL1        0.0082
     42 C         143.6217  145.4852  163.8355 C.3     1  UNL1        0.0005
@<TRIPOS>UNITY_ATOM_ATTR
19 1
charge -1
@<TRIPOS>BOND
     1    40    41    1
     2    41    42    1
     3     1    41    1
     4     1    21    1
     5    21    22    2
     6    21    23   am
     7    23    25    1
     8    25    26    1
     9    26    27   ar
    10    27    28   ar
    11    28    32    1
    12    32    33    1
    13    32    34    1
    14    32    35    1
    15    28    29   ar
    16    29    30   ar
    17    30    36    1
    18    36    37    1
    19    36    38    1
    20    36    39    1
    21    30    31   ar
    22     1     2    1
    23     2     3    1
    24     3     4    1
    25     4     6    1
    26     6     7    1
    27     7     8    1
    28     8     9    1
    29     9    12    1
    30    12    13   ar
    31    13    14   ar
    32    14    15   ar
    33    15    16   ar
    34    16    18    1
    35    18    19   ar
    36    18    20   ar
    37    16    17   ar
    38     9    10    1
    39    10    11    1
    40     4     5    1
    41     5     1    1
    42    31    26   ar
    43    11     6    1
    44    17    12   ar
    45    23    24    1
@<TRIPOS>MOLECULE
*****
 42 45 0 0 0
SMALL
GASTEIGER

@<TRIPOS>ATOM
      1 C         140.9522  142.9170  159.8495 C.3     1  UNL1        0.0702
      2 C         142.1196  143.4520  159.0743 C.3     1  UNL1        0.0100
      3 C         142.6743  142.3345  158.2415 C.3     1  UNL1        0.0164
      4 C         141.8498  141.1089  158.5020 C.3     1  UNL1        0.0580
      5 C         140.7854  141.4689  159.4958 C.3     1  UNL1        0.0246
      6 N         142.0537  139.7601  157.8782 N.3     1  UNL1       -0.2739
      7 C         141.8526  139.5778  156.4030 C.3     1  UNL1        0.0724
      8 C         142.0566  138.2290  155.7792 C.3     1  UNL1        0.0217
      9 C         142.4616  137.0624  156.6307 C.3     1  UNL1        0.0251
     10 C         142.6627  137.2447  158.1060 C.3     1  UNL1        0.0217
     11 C         142.4587  138.5935  158.7298 C.3     1  UNL1        0.0724
     12 C         142.6656  135.7136  156.0069 C.ar    1  UNL1       -0.0224
     13 C         141.9477  135.3574  154.7390 C.ar    1  UNL1       -0.0043
     14 C         142.1516  134.0086  154.1152 C.ar    1  UNL1       -0.0003
     15 C         143.0735  133.0159  154.7594 C.ar    1  UNL1        0.0011
     16 C         143.7914  133.3722  156.0274 C.ar    1  UNL1        0.0137
     17 C         143.5874  134.7210  156.6512 C.ar    1  UNL1       -0.0031
     18 C         144.7132  132.3796  156.6716 C.2     1  UNL1        0.0729
     19 O         145.0905  132.5336  158.1152 O.co2   1  UNL1       -0.5446
     20 O         145.2576  131.2330  155.8723 O.co2   1  UNL1       -0.5446
     21 C         139.7680  142.6741  160.7374 C.2     1  UNL1        0.2218
     22 O         138.4110  143.1659  160.3292 O.2     1  UNL1       -0.2751
     23 N         139.9407  141.9393  162.0338 N.am    1  UNL1       -0.3004
     24 H         140.8313  141.6165  162.3018 H       1  UNL1        0.1497
     25 C         138.7564  141.6964  162.9217 C.3     1  UNL1        0.1163
     26 C         138.9560  141.1585  164.3077 C.ar    1  UNL1       -0.0027
     27 C         138.3887  139.8214  164.6821 C.ar    1  UNL1        0.0012
     28 C         138.5883  139.2835  166.0681 C.ar    1  UNL1        0.0711
     29 C         139.3551  140.0828  167.0796 C.ar    1  UNL1        0.0077
     30 C         139.9224  141.4199  166.7051 C.ar    1  UNL1        0.0711
     31 C         139.7228  141.9578  165.3192 C.ar    1  UNL1        0.0012
     32 C         138.0210  137.9463  166.4425 C.3     1  UNL1        0.4186
     33 F         137.4537  136.6092  166.8170 F       1  UNL1       -0.1659
     34 F         137.1985  138.5958  167.5157 F       1  UNL1       -0.1659
     35 F         138.8435  137.2968  165.3694 F       1  UNL1       -0.1659
     36 C         140.6892  142.2192  167.7166 C.3     1  UNL1        0.4186
     37 F         141.4560  143.0185  168.7281 F       1  UNL1       -0.1659
     38 F         139.8337  141.6542  168.8116 F       1  UNL1       -0.1659
     39 F         141.5447  142.7842  166.6217 F       1  UNL1       -0.1659
     40 C         140.3271  145.4186  159.5319 C.3     1  UNL1        0.0005
     41 C         140.8714  144.3143  160.3888 C.3     1  UNL1        0.0082
     42 C         141.3348  144.6074  161.7850 C.3     1  UNL1        0.0005
@<TRIPOS>UNITY_ATOM_ATTR
19 1
charge -1
@<TRIPOS>BOND
     1    40    41    1
     2    41    42    1
     3     1    41    1
     4     1    21    1
     5    21    22    2
     6    21    23   am
     7    23    25    1
     8    25    26    1
     9    26    27   ar
    10    27    28   ar
    11    28    32    1
    12    32    33    1
    13    32    34    1
    14    32    35    1
    15    28    29   ar
    16    29    30   ar
    17    30    36    1
    18    36    37    1
    19    36    38    1
    20    36    39    1
    21    30    31   ar
    22     1     2    1
    23     2     3    1
    24     3     4    1
    25     4     6    1
    26     6     7    1
    27     7     8    1
    28     8     9    1
    29     9    12    1
    30    12    13   ar
    31    13    14   ar
    32    14    15   ar
    33    15    16   ar
    34    16    18    1
    35    18    19   ar
    36    18    20   ar
    37    16    17   ar
    38     9    10    1
    39    10    11    1
    40     4     5    1
    41     5     1    1
    42    31    26   ar
    43    11     6    1
    44    17    12   ar
    45    23    24    1
@<TRIPOS>MOLECULE
*****
 42 45 0 0 0
SMALL
GASTEIGER

@<TRIPOS>ATOM
      1 C         141.6072  139.4760  161.0073 C.3     1  UNL1        0.0702
      2 C         141.1431  138.5474  159.9246 C.3     1  UNL1        0.0100
      3 C         141.9700  138.8117  158.7013 C.3     1  UNL1        0.0164
      4 C         142.9452  139.9037  159.0280 C.3     1  UNL1        0.0580
      5 C         142.7209  140.3142  160.4532 C.3     1  UNL1        0.0246
      6 N         143.9654  140.4833  158.0936 N.3     1  UNL1       -0.2739
      7 C         144.2750  139.7921  156.7988 C.3     1  UNL1        0.0724
      8 C         145.2952  140.3718  155.8644 C.3     1  UNL1        0.0217
      9 C         146.0059  141.6427  156.2247 C.3     1  UNL1        0.0251
     10 C         145.6962  142.3339  157.5195 C.3     1  UNL1        0.0217
     11 C         144.6760  141.7542  158.4540 C.3     1  UNL1        0.0724
     12 C         147.0261  142.2223  155.2903 C.ar    1  UNL1       -0.0224
     13 C         146.6342  143.3074  154.3317 C.ar    1  UNL1       -0.0043
     14 C         147.6545  143.8871  153.3973 C.ar    1  UNL1       -0.0003
     15 C         149.0665  143.3816  153.4215 C.ar    1  UNL1        0.0011
     16 C         149.4584  142.2964  154.3801 C.ar    1  UNL1        0.0137
     17 C         148.4382  141.7168  155.3146 C.ar    1  UNL1       -0.0031
     18 C         150.8704  141.7909  154.4043 C.2     1  UNL1        0.0729
     19 O         151.9692  142.6605  154.9397 O.co2   1  UNL1       -0.5446
     20 O         151.1837  140.4159  153.8932 O.co2   1  UNL1       -0.5446
     21 C         141.8491  140.2638  162.2606 C.2     1  UNL1        0.2218
     22 O         143.0317  139.9489  163.1280 O.2     1  UNL1       -0.2751
     23 N         140.9083  141.3665  162.6466 N.am    1  UNL1       -0.3004
     24 H         140.1321  141.5732  162.0774 H       1  UNL1        0.1497
     25 C         141.1501  142.1543  163.9000 C.3     1  UNL1        0.1163
     26 C         140.6552  141.6371  165.2182 C.ar    1  UNL1       -0.0027
     27 C         141.0984  142.2896  166.4940 C.ar    1  UNL1        0.0012
     28 C         140.6034  141.7724  167.8121 C.ar    1  UNL1        0.0711
     29 C         139.6653  140.6027  167.8544 C.ar    1  UNL1        0.0077
     30 C         139.2221  139.9502  166.5786 C.ar    1  UNL1        0.0711
     31 C         139.7170  140.4674  165.2605 C.ar    1  UNL1        0.0012
     32 C         141.0466  142.4248  169.0881 C.3     1  UNL1        0.4186
     33 F         141.4897  143.0772  170.3640 F       1  UNL1       -0.1659
     34 F         139.7110  142.1290  169.7032 F       1  UNL1       -0.1659
     35 F         142.3823  142.7207  168.4729 F       1  UNL1       -0.1659
     36 C         138.2839  138.7806  166.6209 C.3     1  UNL1        0.4186
     37 F         137.3458  137.6109  166.6631 F       1  UNL1       -0.1659
     38 F         137.9193  139.1241  168.0347 F       1  UNL1       -0.1659
     39 F         138.6486  138.4370  165.2070 F       1  UNL1       -0.1659
     40 C         140.9110  137.6937  162.7647 C.3     1  UNL1        0.0005
     41 C         140.5441  138.8025  161.8234 C.3     1  UNL1        0.0082
     42 C         139.1141  139.2377  161.6983 C.3     1  UNL1        0.0005
@<TRIPOS>UNITY_ATOM_ATTR
19 1
charge -1
@<TRIPOS>BOND
     1    40    41    1
     2    41    42    1
     3     1    41    1
     4     1    21    1
     5    21    22    2
     6    21    23   am
     7    23    25    1
     8    25    26    1
     9    26    27   ar
    10    27    28   ar
    11    28    32    1
    12    32    33    1
    13    32    34    1
    14    32    35    1
    15    28    29   ar
    16    29    30   ar
    17    30    36    1
    18    36    37    1
    19    36    38    1
    20    36    39    1
    21    30    31   ar
    22     1     2    1
    23     2     3    1
    24     3     4    1
    25     4     6    1
    26     6     7    1
    27     7     8    1
    28     8     9    1
    29     9    12    1
    30    12    13   ar
    31    13    14   ar
    32    14    15   ar
    33    15    16   ar
    34    16    18    1
    35    18    19   ar
    36    18    20   ar
    37    16    17   ar
    38     9    10    1
    39    10    11    1
    40     4     5    1
    41     5     1    1
    42    31    26   ar
    43    11     6    1
    44    17    12   ar
    45    23    24    1
