@<TRIPOS>MOLECULE
*****
 40 44 0 0 0
SMALL
GASTEIGER

@<TRIPOS>ATOM
      1 C         141.7699  139.3718  161.6441 C.ar    1  UNL1        0.0674
      2 C         141.5436  137.8899  161.6954 C.ar    1  UNL1        0.1133
      3 N         140.6629  137.3021  162.7578 N.ar    1  UNL1       -0.2425
      4 C         140.0085  138.1962  163.7689 C.ar    1  UNL1        0.0825
      5 C         139.1278  137.6083  164.8314 C.ar    1  UNL1        0.0230
      6 C         138.4734  138.5024  165.8425 C.ar    1  UNL1        0.0741
      7 C         138.6998  139.9844  165.7912 C.ar    1  UNL1        0.0183
      8 C         139.5805  140.5722  164.7288 C.ar    1  UNL1        0.0463
      9 C         140.2348  139.6781  163.7177 C.ar    1  UNL1        0.0320
     10 C         141.1155  140.2659  162.6552 C.ar    1  UNL1        0.0188
     11 O         146.0948  142.9577  157.6833 O.2     1  UNL1       -0.2523
     12 C         145.2928  141.7234  157.3944 C.2     1  UNL1        0.3074
     13 N         145.3716  141.0770  156.0432 N.am    1  UNL1       -0.2589
     14 C         144.5697  139.8427  155.7543 C.3     1  UNL1        0.1270
     15 C         144.6485  139.1963  154.4030 C.3     1  UNL1        0.1637
     16 O         145.5292  139.7842  153.3406 O.3     1  UNL1       -0.3501
     17 C         146.3311  141.0185  153.6295 C.3     1  UNL1        0.1637
     18 C         146.2523  141.6649  154.9807 C.3     1  UNL1        0.1270
     19 N         144.4121  141.1355  158.4568 N.am    1  UNL1       -0.2605
     20 C         144.3333  141.7819  159.8081 C.3     1  UNL1        0.1164
     21 C         143.4526  141.1940  160.8705 C.3     1  UNL1        0.1124
     22 N         142.6507  139.9597  160.5816 N.pl3   1  UNL1       -0.3028
     23 C         142.7294  139.3133  159.2304 C.3     1  UNL1        0.1124
     24 C         143.6102  139.9012  158.1679 C.3     1  UNL1        0.1164
     25 C         137.5927  137.9146  166.9050 C.3     1  UNL1        0.4187
     26 F         136.7119  137.3267  167.9674 F       1  UNL1       -0.1659
     27 F         137.6240  136.5915  166.1989 F       1  UNL1       -0.1659
     28 F         137.5614  139.2376  167.6110 F       1  UNL1       -0.1659
     29 N         139.8068  142.0541  164.6775 N.pl3   1  UNL1       -0.3290
     30 H         139.2307  142.6209  164.1152 H       1  UNL1        0.1471
     31 C         140.9108  142.6725  165.4829 C.3     1  UNL1        0.1145
     32 C         141.2708  142.1034  166.8233 C.ar    1  UNL1        0.0035
     33 C         142.2107  140.9380  166.9154 C.ar    1  UNL1       -0.0022
     34 C         142.5707  140.3689  168.2557 C.ar    1  UNL1        0.0060
     35 C         141.9907  140.9652  169.5040 C.ar    1  UNL1        0.0752
     36 C         141.0508  142.1305  169.4119 C.ar    1  UNL1        0.2898
     37 C         140.6908  142.6996  168.0715 C.ar    1  UNL1        0.0727
     38 N         140.4708  142.7268  170.6601 N.pl3   1  UNL1        0.0809
     39 O         140.7001  142.0624  171.9853 O.2     1  UNL1        0.0415
     40 O         139.6615  143.9873  170.5832 O.co2   1  UNL1       -0.5760
@<TRIPOS>UNITY_ATOM_ATTR
38 1
charge 1
40 1
charge -1
@<TRIPOS>BOND
     1    11    12    2
     2    12    13   am
     3    13    14    1
     4    14    15    1
     5    15    16    1
     6    16    17    1
     7    17    18    1
     8    12    19   am
     9    19    20    1
    10    20    21    1
    11    21    22    1
    12    22     1    1
    13     1     2   ar
    14     2     3   ar
    15     3     4   ar
    16     4     5   ar
    17     5     6   ar
    18     6    25    1
    19    25    26    1
    20    25    27    1
    21    25    28    1
    22     6     7   ar
    23     7     8   ar
    24     8    29    1
    25    29    31    1
    26    31    32    1
    27    32    33   ar
    28    33    34   ar
    29    34    35   ar
    30    35    36   ar
    31    36    38    1
    32    38    39    2
    33    38    40    1
    34    36    37   ar
    35     8     9   ar
    36     9    10   ar
    37    22    23    1
    38    23    24    1
    39    18    13    1
    40    24    19    1
    41    10     1   ar
    42     9     4   ar
    43    37    32   ar
    44    29    30    1
@<TRIPOS>MOLECULE
*****
 40 44 0 0 0
SMALL
GASTEIGER

@<TRIPOS>ATOM
      1 C         139.7169  142.3873  163.5645 C.ar    1  UNL1        0.0674
      2 C         140.4946  143.4496  164.2832 C.ar    1  UNL1        0.1133
      3 N         140.7582  143.3203  165.7542 N.ar    1  UNL1       -0.2425
      4 C         140.2441  142.1287  166.5064 C.ar    1  UNL1        0.0825
      5 C         140.5078  141.9995  167.9774 C.ar    1  UNL1        0.0230
      6 C         139.9937  140.8079  168.7296 C.ar    1  UNL1        0.0741
      7 C         139.2159  139.7456  168.0108 C.ar    1  UNL1        0.0183
      8 C         138.9523  139.8749  166.5399 C.ar    1  UNL1        0.0463
      9 C         139.4664  141.0665  165.7877 C.ar    1  UNL1        0.0320
     10 C         139.2027  141.1958  164.3167 C.ar    1  UNL1        0.0188
     11 O         137.7675  141.9183  156.9895 O.2     1  UNL1       -0.2523
     12 C         138.6622  142.9042  157.6805 C.2     1  UNL1        0.3074
     13 N         139.2931  144.0194  156.9006 N.am    1  UNL1       -0.2589
     14 C         140.1878  145.0053  157.5917 C.3     1  UNL1        0.1270
     15 C         140.8188  146.1205  156.8117 C.3     1  UNL1        0.1637
     16 O         140.5551  146.2497  155.3407 O.3     1  UNL1       -0.3501
     17 C         139.6604  145.2638  154.6497 C.3     1  UNL1        0.1637
     18 C         139.0295  144.1486  155.4296 C.3     1  UNL1        0.1270
     19 N         138.9258  142.7750  159.1515 N.am    1  UNL1       -0.2605
     20 C         138.2948  141.6599  159.9315 C.3     1  UNL1        0.1164
     21 C         138.5585  141.5307  161.4024 C.3     1  UNL1        0.1124
     22 N         139.4532  142.5166  162.0935 N.pl3   1  UNL1       -0.3028
     23 C         140.0842  143.6317  161.3136 C.3     1  UNL1        0.1124
     24 C         139.8205  143.7610  159.8425 C.3     1  UNL1        0.1164
     25 C         140.2573  140.6786  170.2006 C.3     1  UNL1        0.4187
     26 F         140.5209  140.5494  171.6716 F       1  UNL1       -0.1659
     27 F         139.5203  141.9619  170.4455 F       1  UNL1       -0.1659
     28 F         140.9943  139.3954  169.9557 F       1  UNL1       -0.1659
     29 N         138.1745  138.8126  165.8212 N.pl3   1  UNL1       -0.3290
     30 H         137.1950  138.8825  165.7505 H       1  UNL1        0.1471
     31 C         138.8891  137.6438  165.2101 C.3     1  UNL1        0.1145
     32 C         139.6012  137.8019  163.8994 C.ar    1  UNL1        0.0035
     33 C         138.8185  137.8387  162.6203 C.ar    1  UNL1       -0.0022
     34 C         139.5305  137.9967  161.3096 C.ar    1  UNL1        0.0060
     35 C         141.0253  138.1180  161.2779 C.ar    1  UNL1        0.0752
     36 C         141.8080  138.0812  162.5570 C.ar    1  UNL1        0.2898
     37 C         141.0959  137.9231  163.8677 C.ar    1  UNL1        0.0727
     38 N         143.3027  138.2024  162.5253 N.pl3   1  UNL1        0.0809
     39 O         144.0802  137.6002  161.3927 O.2     1  UNL1        0.0415
     40 O         144.0199  138.9258  163.6263 O.co2   1  UNL1       -0.5760
@<TRIPOS>UNITY_ATOM_ATTR
38 1
charge 1
40 1
charge -1
@<TRIPOS>BOND
     1    11    12    2
     2    12    13   am
     3    13    14    1
     4    14    15    1
     5    15    16    1
     6    16    17    1
     7    17    18    1
     8    12    19   am
     9    19    20    1
    10    20    21    1
    11    21    22    1
    12    22     1    1
    13     1     2   ar
    14     2     3   ar
    15     3     4   ar
    16     4     5   ar
    17     5     6   ar
    18     6    25    1
    19    25    26    1
    20    25    27    1
    21    25    28    1
    22     6     7   ar
    23     7     8   ar
    24     8    29    1
    25    29    31    1
    26    31    32    1
    27    32    33   ar
    28    33    34   ar
    29    34    35   ar
    30    35    36   ar
    31    36    38    1
    32    38    39    2
    33    38    40    1
    34    36    37   ar
    35     8     9   ar
    36     9    10   ar
    37    22    23    1
    38    23    24    1
    39    18    13    1
    40    24    19    1
    41    10     1   ar
    42     9     4   ar
    43    37    32   ar
    44    29    30    1
@<TRIPOS>MOLECULE
*****
 40 44 0 0 0
SMALL
GASTEIGER

@<TRIPOS>ATOM
      1 C         142.6099  143.1447  162.4482 C.ar    1  UNL1        0.0674
      2 C         143.9346  142.7289  163.0159 C.ar    1  UNL1        0.1133
      3 N         144.0456  142.3544  164.4641 N.ar    1  UNL1       -0.2425
      4 C         142.8319  142.3957  165.3446 C.ar    1  UNL1        0.0825
      5 C         142.9430  142.0212  166.7929 C.ar    1  UNL1        0.0230
      6 C         141.7293  142.0625  167.6734 C.ar    1  UNL1        0.0741
      7 C         140.4046  142.4784  167.1056 C.ar    1  UNL1        0.0183
      8 C         140.2936  142.8529  165.6574 C.ar    1  UNL1        0.0463
      9 C         141.5073  142.8115  164.7769 C.ar    1  UNL1        0.0320
     10 C         141.3963  143.1860  163.3287 C.ar    1  UNL1        0.0188
     11 O         143.0791  144.0129  155.6455 O.2     1  UNL1       -0.2523
     12 C         142.1659  144.6427  156.6551 C.2     1  UNL1        0.3074
     13 N         141.1416  145.6469  156.2165 N.am    1  UNL1       -0.2589
     14 C         140.2284  146.2767  157.2262 C.3     1  UNL1        0.1270
     15 C         139.2042  147.2810  156.7875 C.3     1  UNL1        0.1637
     16 O         139.0932  147.6555  155.3393 O.3     1  UNL1       -0.3501
     17 C         140.0064  147.0257  154.3297 C.3     1  UNL1        0.1637
     18 C         141.0306  146.0214  154.7682 C.3     1  UNL1        0.1270
     19 N         142.2769  144.2682  158.1033 N.am    1  UNL1       -0.2605
     20 C         143.3011  143.2639  158.5420 C.3     1  UNL1        0.1164
     21 C         143.4121  142.8894  159.9902 C.3     1  UNL1        0.1124
     22 N         142.4989  143.5192  160.9999 N.pl3   1  UNL1       -0.3028
     23 C         141.4747  144.5235  160.5613 C.3     1  UNL1        0.1124
     24 C         141.3636  144.8980  159.1130 C.3     1  UNL1        0.1164
     25 C         141.8403  141.6880  169.1216 C.3     1  UNL1        0.4187
     26 F         141.9513  141.3135  170.5699 F       1  UNL1       -0.1659
     27 F         143.2286  141.1731  168.8821 F       1  UNL1       -0.1659
     28 F         140.4520  142.2030  169.3612 F       1  UNL1       -0.1659
     29 N         138.9689  143.2687  165.0897 N.pl3   1  UNL1       -0.3290
     30 H         138.6963  144.2143  165.1179 H       1  UNL1        0.1471
     31 C         138.0597  142.2439  164.4790 C.3     1  UNL1        0.1145
     32 C         138.3963  140.7857  164.5827 C.ar    1  UNL1        0.0035
     33 C         138.1629  140.0519  165.8699 C.ar    1  UNL1       -0.0022
     34 C         138.4994  138.5938  165.9736 C.ar    1  UNL1        0.0060
     35 C         139.0693  137.8696  164.7901 C.ar    1  UNL1        0.0752
     36 C         139.3027  138.6034  163.5029 C.ar    1  UNL1        0.2898
     37 C         138.9661  140.0616  163.3992 C.ar    1  UNL1        0.0727
     38 N         139.8726  137.8792  162.3194 N.pl3   1  UNL1        0.0809
     39 O         139.1514  137.9071  161.0044 O.2     1  UNL1        0.0415
     40 O         141.1637  137.1272  162.4508 O.co2   1  UNL1       -0.5760
@<TRIPOS>UNITY_ATOM_ATTR
38 1
charge 1
40 1
charge -1
@<TRIPOS>BOND
     1    11    12    2
     2    12    13   am
     3    13    14    1
     4    14    15    1
     5    15    16    1
     6    16    17    1
     7    17    18    1
     8    12    19   am
     9    19    20    1
    10    20    21    1
    11    21    22    1
    12    22     1    1
    13     1     2   ar
    14     2     3   ar
    15     3     4   ar
    16     4     5   ar
    17     5     6   ar
    18     6    25    1
    19    25    26    1
    20    25    27    1
    21    25    28    1
    22     6     7   ar
    23     7     8   ar
    24     8    29    1
    25    29    31    1
    26    31    32    1
    27    32    33   ar
    28    33    34   ar
    29    34    35   ar
    30    35    36   ar
    31    36    38    1
    32    38    39    2
    33    38    40    1
    34    36    37   ar
    35     8     9   ar
    36     9    10   ar
    37    22    23    1
    38    23    24    1
    39    18    13    1
    40    24    19    1
    41    10     1   ar
    42     9     4   ar
    43    37    32   ar
    44    29    30    1
@<TRIPOS>MOLECULE
*****
 40 44 0 0 0
SMALL
GASTEIGER

@<TRIPOS>ATOM
      1 C         143.1530  142.5019  162.6201 C.ar    1  UNL1        0.0674
      2 C         144.3883  142.2286  163.4258 C.ar    1  UNL1        0.1133
      3 N         144.3057  142.1483  164.9213 N.ar    1  UNL1       -0.2425
      4 C         142.9878  142.3413  165.6111 C.ar    1  UNL1        0.0825
      5 C         142.9052  142.2610  167.1068 C.ar    1  UNL1        0.0230
      6 C         141.5873  142.4540  167.7966 C.ar    1  UNL1        0.0741
      7 C         140.3520  142.7274  166.9907 C.ar    1  UNL1        0.0183
      8 C         140.4346  142.8077  165.4952 C.ar    1  UNL1        0.0463
      9 C         141.7525  142.6146  164.8054 C.ar    1  UNL1        0.0320
     10 C         141.8351  142.6949  163.3099 C.ar    1  UNL1        0.0188
     11 O         142.2542  143.1296  155.8341 O.2     1  UNL1       -0.2523
     12 C         143.4832  142.8231  156.6377 C.2     1  UNL1        0.3074
     13 N         144.7946  142.5969  155.9458 N.am    1  UNL1       -0.2589
     14 C         146.0236  142.2904  156.7493 C.3     1  UNL1        0.1270
     15 C         147.3351  142.0642  156.0573 C.3     1  UNL1        0.1637
     16 O         147.4176  142.1445  154.5618 O.3     1  UNL1       -0.3501
     17 C         146.1887  142.4510  153.7582 C.3     1  UNL1        0.1637
     18 C         144.8772  142.6772  154.4501 C.3     1  UNL1        0.1270
     19 N         143.4007  142.7428  158.1333 N.am    1  UNL1       -0.2605
     20 C         142.0892  142.9690  158.8253 C.3     1  UNL1        0.1164
     21 C         142.0067  142.8887  160.3209 C.3     1  UNL1        0.1124
     22 N         143.2356  142.5822  161.1244 N.pl3   1  UNL1       -0.3028
     23 C         144.5471  142.3560  160.4325 C.3     1  UNL1        0.1124
     24 C         144.6296  142.4363  158.9368 C.3     1  UNL1        0.1164
     25 C         141.5047  142.3738  169.2921 C.3     1  UNL1        0.4187
     26 F         141.4221  142.2934  170.7877 F       1  UNL1       -0.1659
     27 F         142.6570  141.4135  169.3042 F       1  UNL1       -0.1659
     28 F         140.3525  143.3340  169.2800 F       1  UNL1       -0.1659
     29 N         139.1993  143.0810  164.6895 N.pl3   1  UNL1       -0.3290
     30 H         139.1197  143.9193  164.1794 H       1  UNL1        0.1471
     31 C         138.0852  142.0770  164.6608 C.3     1  UNL1        0.1145
     32 C         138.3978  140.6100  164.6449 C.ar    1  UNL1        0.0035
     33 C         138.1464  139.7763  165.8663 C.ar    1  UNL1       -0.0022
     34 C         138.4589  138.3094  165.8505 C.ar    1  UNL1        0.0060
     35 C         139.0230  137.6760  164.6132 C.ar    1  UNL1        0.0752
     36 C         139.2744  138.5096  163.3918 C.ar    1  UNL1        0.2898
     37 C         138.9617  139.9767  163.4077 C.ar    1  UNL1        0.0727
     38 N         139.8383  137.8763  162.1545 N.pl3   1  UNL1        0.0809
     39 O         139.0738  137.9374  160.8655 O.2     1  UNL1        0.0415
     40 O         141.1669  137.1820  162.2064 O.co2   1  UNL1       -0.5760
@<TRIPOS>UNITY_ATOM_ATTR
38 1
charge 1
40 1
charge -1
@<TRIPOS>BOND
     1    11    12    2
     2    12    13   am
     3    13    14    1
     4    14    15    1
     5    15    16    1
     6    16    17    1
     7    17    18    1
     8    12    19   am
     9    19    20    1
    10    20    21    1
    11    21    22    1
    12    22     1    1
    13     1     2   ar
    14     2     3   ar
    15     3     4   ar
    16     4     5   ar
    17     5     6   ar
    18     6    25    1
    19    25    26    1
    20    25    27    1
    21    25    28    1
    22     6     7   ar
    23     7     8   ar
    24     8    29    1
    25    29    31    1
    26    31    32    1
    27    32    33   ar
    28    33    34   ar
    29    34    35   ar
    30    35    36   ar
    31    36    38    1
    32    38    39    2
    33    38    40    1
    34    36    37   ar
    35     8     9   ar
    36     9    10   ar
    37    22    23    1
    38    23    24    1
    39    18    13    1
    40    24    19    1
    41    10     1   ar
    42     9     4   ar
    43    37    32   ar
    44    29    30    1
@<TRIPOS>MOLECULE
*****
 40 44 0 0 0
SMALL
GASTEIGER

@<TRIPOS>ATOM
      1 C         142.0070  143.9754  162.2074 C.ar    1  UNL1        0.0674
      2 C         143.4555  143.6828  162.4641 C.ar    1  UNL1        0.1133
      3 N         143.8830  143.1123  163.7838 N.ar    1  UNL1       -0.2425
      4 C         142.8618  142.8345  164.8469 C.ar    1  UNL1        0.0825
      5 C         143.2893  142.2640  166.1667 C.ar    1  UNL1        0.0230
      6 C         142.2682  141.9862  167.2298 C.ar    1  UNL1        0.0741
      7 C         140.8195  142.2789  166.9730 C.ar    1  UNL1        0.0183
      8 C         140.3921  142.8494  165.6533 C.ar    1  UNL1        0.0463
      9 C         141.4133  143.1272  164.5902 C.ar    1  UNL1        0.0320
     10 C         140.9858  143.6976  163.2704 C.ar    1  UNL1        0.0188
     11 O         139.1200  147.1846  156.8579 O.2     1  UNL1       -0.2523
     12 C         140.2969  146.2573  156.9282 C.2     1  UNL1        0.3074
     13 N         141.0464  145.9005  155.6789 N.am    1  UNL1       -0.2589
     14 C         142.2233  144.9732  155.7492 C.3     1  UNL1        0.1270
     15 C         142.9727  144.6164  154.4997 C.3     1  UNL1        0.1637
     16 O         142.5452  145.1869  153.1800 O.3     1  UNL1       -0.3501
     17 C         141.3683  146.1142  153.1097 C.3     1  UNL1        0.1637
     18 C         140.6189  146.4710  154.3590 C.3     1  UNL1        0.1270
     19 N         140.7244  145.6869  158.2480 N.am    1  UNL1       -0.2605
     20 C         139.9750  146.0437  159.4975 C.3     1  UNL1        0.1164
     21 C         140.4025  145.4732  160.8172 C.3     1  UNL1        0.1124
     22 N         141.5795  144.5459  160.8875 N.pl3   1  UNL1       -0.3028
     23 C         142.3289  144.1891  159.6382 C.3     1  UNL1        0.1124
     24 C         141.9014  144.7596  158.3183 C.3     1  UNL1        0.1164
     25 C         142.6956  141.4158  168.5496 C.3     1  UNL1        0.4187
     26 F         143.1230  140.8452  169.8694 F       1  UNL1       -0.1659
     27 F         141.6678  140.3318  168.4139 F       1  UNL1       -0.1659
     28 F         143.7235  142.4997  168.6852 F       1  UNL1       -0.1659
     29 N         138.9435  143.1420  165.3966 N.pl3   1  UNL1       -0.3290
     30 H         138.5351  143.9612  165.7590 H       1  UNL1        0.1471
     31 C         138.1172  142.1866  164.5876 C.3     1  UNL1        0.1145
     32 C         138.4366  140.7210  164.6018 C.ar    1  UNL1        0.0035
     33 C         138.1586  139.9046  165.8291 C.ar    1  UNL1       -0.0022
     34 C         138.4779  138.4391  165.8433 C.ar    1  UNL1        0.0060
     35 C         139.0752  137.7898  164.6301 C.ar    1  UNL1        0.0752
     36 C         139.3531  138.6062  163.4028 C.ar    1  UNL1        0.2898
     37 C         139.0338  140.0718  163.3886 C.ar    1  UNL1        0.0727
     38 N         139.9504  137.9569  162.1896 N.pl3   1  UNL1        0.0809
     39 O         139.2245  138.0074  160.8779 O.2     1  UNL1        0.0415
     40 O         141.2735  137.2573  162.2882 O.co2   1  UNL1       -0.5760
@<TRIPOS>UNITY_ATOM_ATTR
38 1
charge 1
40 1
charge -1
@<TRIPOS>BOND
     1    11    12    2
     2    12    13   am
     3    13    14    1
     4    14    15    1
     5    15    16    1
     6    16    17    1
     7    17    18    1
     8    12    19   am
     9    19    20    1
    10    20    21    1
    11    21    22    1
    12    22     1    1
    13     1     2   ar
    14     2     3   ar
    15     3     4   ar
    16     4     5   ar
    17     5     6   ar
    18     6    25    1
    19    25    26    1
    20    25    27    1
    21    25    28    1
    22     6     7   ar
    23     7     8   ar
    24     8    29    1
    25    29    31    1
    26    31    32    1
    27    32    33   ar
    28    33    34   ar
    29    34    35   ar
    30    35    36   ar
    31    36    38    1
    32    38    39    2
    33    38    40    1
    34    36    37   ar
    35     8     9   ar
    36     9    10   ar
    37    22    23    1
    38    23    24    1
    39    18    13    1
    40    24    19    1
    41    10     1   ar
    42     9     4   ar
    43    37    32   ar
    44    29    30    1
@<TRIPOS>MOLECULE
*****
 40 44 0 0 0
SMALL
GASTEIGER

@<TRIPOS>ATOM
      1 C         141.2475  139.5304  161.1599 C.ar    1  UNL1        0.0674
      2 C         141.0522  138.0449  161.2324 C.ar    1  UNL1        0.1133
      3 N         140.2980  137.4429  162.3807 N.ar    1  UNL1       -0.2425
      4 C         139.7391  138.3262  163.4565 C.ar    1  UNL1        0.0825
      5 C         138.9849  137.7241  164.6048 C.ar    1  UNL1        0.0230
      6 C         138.4259  138.6075  165.6806 C.ar    1  UNL1        0.0741
      7 C         138.6211  140.0930  165.6079 C.ar    1  UNL1        0.0183
      8 C         139.3753  140.6950  164.4596 C.ar    1  UNL1        0.0463
      9 C         139.9343  139.8117  163.3839 C.ar    1  UNL1        0.0320
     10 C         140.6885  140.4137  162.2356 C.ar    1  UNL1        0.0188
     11 O         145.6160  141.4052  156.1949 O.2     1  UNL1       -0.2523
     12 C         144.2644  141.9388  156.5666 C.2     1  UNL1        0.3074
     13 N         143.6669  143.0746  155.7900 N.am    1  UNL1       -0.2589
     14 C         142.3152  143.6082  156.1617 C.3     1  UNL1        0.1270
     15 C         141.7178  144.7440  155.3851 C.3     1  UNL1        0.1637
     16 O         142.4720  145.3461  154.2368 O.3     1  UNL1       -0.3501
     17 C         143.8237  144.8124  153.8651 C.3     1  UNL1        0.1637
     18 C         144.4211  143.6767  154.6417 C.3     1  UNL1        0.1270
     19 N         143.5101  141.3367  157.7149 N.am    1  UNL1       -0.2605
     20 C         144.1076  140.2009  158.4915 C.3     1  UNL1        0.1164
     21 C         143.3534  139.5989  159.6398 C.3     1  UNL1        0.1124
     22 N         142.0017  140.1325  160.0115 N.pl3   1  UNL1       -0.3028
     23 C         141.4042  141.2682  159.2349 C.3     1  UNL1        0.1124
     24 C         142.1585  141.8704  158.0866 C.3     1  UNL1        0.1164
     25 C         137.6717  138.0054  166.8289 C.3     1  UNL1        0.4187
     26 F         136.9175  137.4033  167.9773 F       1  UNL1       -0.1659
     27 F         137.6372  139.3427  167.5074 F       1  UNL1       -0.1659
     28 F         137.7062  136.6681  166.1504 F       1  UNL1       -0.1659
     29 N         139.5706  142.1805  164.3871 N.pl3   1  UNL1       -0.3290
     30 H         139.7181  142.6156  163.5164 H       1  UNL1        0.1471
     31 C         139.5410  143.0030  165.6411 C.3     1  UNL1        0.1145
     32 C         140.5503  142.7571  166.7232 C.ar    1  UNL1        0.0035
     33 C         141.9664  142.4164  166.3647 C.ar    1  UNL1       -0.0022
     34 C         142.9757  142.1705  167.4467 C.ar    1  UNL1        0.0060
     35 C         142.5689  142.2653  168.8874 C.ar    1  UNL1        0.0752
     36 C         141.1528  142.6060  169.2460 C.ar    1  UNL1        0.2898
     37 C         140.1435  142.8519  168.1639 C.ar    1  UNL1        0.0727
     38 N         140.7460  142.7009  170.6866 N.pl3   1  UNL1        0.0809
     39 O         139.4091  143.2745  171.0523 O.2     1  UNL1        0.0415
     40 O         141.6760  142.2221  171.7616 O.co2   1  UNL1       -0.5760
@<TRIPOS>UNITY_ATOM_ATTR
38 1
charge 1
40 1
charge -1
@<TRIPOS>BOND
     1    11    12    2
     2    12    13   am
     3    13    14    1
     4    14    15    1
     5    15    16    1
     6    16    17    1
     7    17    18    1
     8    12    19   am
     9    19    20    1
    10    20    21    1
    11    21    22    1
    12    22     1    1
    13     1     2   ar
    14     2     3   ar
    15     3     4   ar
    16     4     5   ar
    17     5     6   ar
    18     6    25    1
    19    25    26    1
    20    25    27    1
    21    25    28    1
    22     6     7   ar
    23     7     8   ar
    24     8    29    1
    25    29    31    1
    26    31    32    1
    27    32    33   ar
    28    33    34   ar
    29    34    35   ar
    30    35    36   ar
    31    36    38    1
    32    38    39    2
    33    38    40    1
    34    36    37   ar
    35     8     9   ar
    36     9    10   ar
    37    22    23    1
    38    23    24    1
    39    18    13    1
    40    24    19    1
    41    10     1   ar
    42     9     4   ar
    43    37    32   ar
    44    29    30    1
@<TRIPOS>MOLECULE
*****
 40 44 0 0 0
SMALL
GASTEIGER

@<TRIPOS>ATOM
      1 C         143.2752  142.5896  162.3441 C.ar    1  UNL1        0.0674
      2 C         144.4902  142.3172  163.1805 C.ar    1  UNL1        0.1133
      3 N         144.3699  142.2350  164.6733 N.ar    1  UNL1       -0.2425
      4 C         143.0347  142.4252  165.3298 C.ar    1  UNL1        0.0825
      5 C         142.9145  142.3430  166.8228 C.ar    1  UNL1        0.0230
      6 C         141.5792  142.5332  167.4793 C.ar    1  UNL1        0.0741
      7 C         140.3642  142.8056  166.6428 C.ar    1  UNL1        0.0183
      8 C         140.4845  142.8879  165.1499 C.ar    1  UNL1        0.0463
      9 C         141.8197  142.6976  164.4934 C.ar    1  UNL1        0.0320
     10 C         141.9400  142.7799  163.0006 C.ar    1  UNL1        0.0188
     11 O         142.5595  143.2782  155.5423 O.2     1  UNL1       -0.2523
     12 C         143.7560  142.9186  156.3724 C.2     1  UNL1        0.3074
     13 N         145.0727  142.6412  155.7096 N.am    1  UNL1       -0.2589
     14 C         146.2692  142.2816  156.5397 C.3     1  UNL1        0.1270
     15 C         147.5860  142.0043  155.8768 C.3     1  UNL1        0.1637
     16 O         147.7061  142.0865  154.3839 O.3     1  UNL1       -0.3501
     17 C         146.5096  142.4461  153.5538 C.3     1  UNL1        0.1637
     18 C         145.1929  142.7235  154.2166 C.3     1  UNL1        0.1270
     19 N         143.6358  142.8363  157.8653 N.am    1  UNL1       -0.2605
     20 C         142.3191  143.1137  158.5281 C.3     1  UNL1        0.1164
     21 C         142.1989  143.0315  160.0210 C.3     1  UNL1        0.1124
     22 N         143.3954  142.6719  160.8511 N.pl3   1  UNL1       -0.3028
     23 C         144.7121  142.3945  160.1883 C.3     1  UNL1        0.1124
     24 C         144.8324  142.4767  158.6953 C.3     1  UNL1        0.1164
     25 C         141.4590  142.4510  168.9721 C.3     1  UNL1        0.4187
     26 F         141.3386  142.3687  170.4651 F       1  UNL1       -0.1659
     27 F         139.9964  142.1464  168.8375 F       1  UNL1       -0.1659
     28 F         142.9215  142.7555  169.1067 F       1  UNL1       -0.1659
     29 N         139.2695  143.1603  164.3135 N.pl3   1  UNL1       -0.3290
     30 H         138.9202  144.0776  164.2370 H       1  UNL1        0.1471
     31 C         138.5868  142.0353  163.5937 C.3     1  UNL1        0.1145
     32 C         138.6830  140.6362  164.1262 C.ar    1  UNL1        0.0035
     33 C         139.2738  139.5496  163.2776 C.ar    1  UNL1       -0.0022
     34 C         139.3700  138.1507  163.8101 C.ar    1  UNL1        0.0060
     35 C         138.8752  137.8382  165.1913 C.ar    1  UNL1        0.0752
     36 C         138.2843  138.9248  166.0399 C.ar    1  UNL1        0.2898
     37 C         138.1882  140.3238  165.5074 C.ar    1  UNL1        0.0727
     38 N         137.7895  138.6124  167.4211 N.pl3   1  UNL1        0.0809
     39 O         136.7097  137.5900  167.6175 O.2     1  UNL1        0.0415
     40 O         138.3746  139.3224  168.6057 O.co2   1  UNL1       -0.5760
@<TRIPOS>UNITY_ATOM_ATTR
38 1
charge 1
40 1
charge -1
@<TRIPOS>BOND
     1    11    12    2
     2    12    13   am
     3    13    14    1
     4    14    15    1
     5    15    16    1
     6    16    17    1
     7    17    18    1
     8    12    19   am
     9    19    20    1
    10    20    21    1
    11    21    22    1
    12    22     1    1
    13     1     2   ar
    14     2     3   ar
    15     3     4   ar
    16     4     5   ar
    17     5     6   ar
    18     6    25    1
    19    25    26    1
    20    25    27    1
    21    25    28    1
    22     6     7   ar
    23     7     8   ar
    24     8    29    1
    25    29    31    1
    26    31    32    1
    27    32    33   ar
    28    33    34   ar
    29    34    35   ar
    30    35    36   ar
    31    36    38    1
    32    38    39    2
    33    38    40    1
    34    36    37   ar
    35     8     9   ar
    36     9    10   ar
    37    22    23    1
    38    23    24    1
    39    18    13    1
    40    24    19    1
    41    10     1   ar
    42     9     4   ar
    43    37    32   ar
    44    29    30    1
@<TRIPOS>MOLECULE
*****
 40 44 0 0 0
SMALL
GASTEIGER

@<TRIPOS>ATOM
      1 C         141.9595  139.0409  160.9289 C.ar    1  UNL1        0.0674
      2 C         142.6701  138.2177  161.9620 C.ar    1  UNL1        0.1133
      3 N         142.0627  138.0322  163.3209 N.ar    1  UNL1       -0.2425
      4 C         140.7446  138.6699  163.6467 C.ar    1  UNL1        0.0825
      5 C         140.1372  138.4843  165.0056 C.ar    1  UNL1        0.0230
      6 C         138.8192  139.1221  165.3314 C.ar    1  UNL1        0.0741
      7 C         138.1086  139.9454  164.2982 C.ar    1  UNL1        0.0183
      8 C         138.7161  140.1309  162.9394 C.ar    1  UNL1        0.0463
      9 C         140.0341  139.4932  162.6136 C.ar    1  UNL1        0.0320
     10 C         140.6415  139.6787  161.2547 C.ar    1  UNL1        0.0188
     11 O         143.8946  138.9705  154.3334 O.2     1  UNL1       -0.2523
     12 C         144.3891  139.7831  155.4932 C.2     1  UNL1        0.3074
     13 N         145.4910  140.7811  155.2942 N.am    1  UNL1       -0.2589
     14 C         145.9855  141.5937  156.4540 C.3     1  UNL1        0.1270
     15 C         147.0875  142.5918  156.2549 C.3     1  UNL1        0.1637
     16 O         147.6948  142.7773  154.8960 O.3     1  UNL1       -0.3501
     17 C         147.2003  141.9648  153.7362 C.3     1  UNL1        0.1637
     18 C         146.0984  140.9667  153.9352 C.3     1  UNL1        0.1270
     19 N         143.7818  139.5976  156.8521 N.am    1  UNL1       -0.2605
     20 C         142.6798  138.5994  157.0513 C.3     1  UNL1        0.1164
     21 C         142.0724  138.4139  158.4101 C.3     1  UNL1        0.1124
     22 N         142.5670  139.2265  159.5700 N.pl3   1  UNL1       -0.3028
     23 C         143.6688  140.2246  159.3709 C.3     1  UNL1        0.1124
     24 C         144.2763  140.4101  158.0120 C.3     1  UNL1        0.1164
     25 C         138.2118  138.9366  166.6903 C.3     1  UNL1        0.4187
     26 F         137.6043  138.7511  168.0492 F       1  UNL1       -0.1659
     27 F         138.7933  140.2477  167.1292 F       1  UNL1       -0.1659
     28 F         137.6302  137.6254  166.2513 F       1  UNL1       -0.1659
     29 N         138.0055  140.9542  161.9063 N.pl3   1  UNL1       -0.3290
     30 H         137.6609  140.5276  161.0887 H       1  UNL1        0.1471
     31 C         137.8199  142.4274  162.1190 C.3     1  UNL1        0.1145
     32 C         138.9252  143.2433  162.7214 C.ar    1  UNL1        0.0035
     33 C         138.7448  143.8686  164.0728 C.ar    1  UNL1       -0.0022
     34 C         139.8500  144.6845  164.6752 C.ar    1  UNL1        0.0060
     35 C         141.1356  144.8750  163.9262 C.ar    1  UNL1        0.0752
     36 C         141.3159  144.2497  162.5747 C.ar    1  UNL1        0.2898
     37 C         140.2107  143.4338  161.9723 C.ar    1  UNL1        0.0727
     38 N         142.6014  144.4402  161.8256 N.pl3   1  UNL1        0.0809
     39 O         143.8508  144.8190  162.5643 O.2     1  UNL1        0.0415
     40 O         142.6375  144.2520  160.3380 O.co2   1  UNL1       -0.5760
@<TRIPOS>UNITY_ATOM_ATTR
38 1
charge 1
40 1
charge -1
@<TRIPOS>BOND
     1    11    12    2
     2    12    13   am
     3    13    14    1
     4    14    15    1
     5    15    16    1
     6    16    17    1
     7    17    18    1
     8    12    19   am
     9    19    20    1
    10    20    21    1
    11    21    22    1
    12    22     1    1
    13     1     2   ar
    14     2     3   ar
    15     3     4   ar
    16     4     5   ar
    17     5     6   ar
    18     6    25    1
    19    25    26    1
    20    25    27    1
    21    25    28    1
    22     6     7   ar
    23     7     8   ar
    24     8    29    1
    25    29    31    1
    26    31    32    1
    27    32    33   ar
    28    33    34   ar
    29    34    35   ar
    30    35    36   ar
    31    36    38    1
    32    38    39    2
    33    38    40    1
    34    36    37   ar
    35     8     9   ar
    36     9    10   ar
    37    22    23    1
    38    23    24    1
    39    18    13    1
    40    24    19    1
    41    10     1   ar
    42     9     4   ar
    43    37    32   ar
    44    29    30    1
@<TRIPOS>MOLECULE
*****
 40 44 0 0 0
SMALL
GASTEIGER

@<TRIPOS>ATOM
      1 C         141.1237  138.8424  160.1125 C.ar    1  UNL1        0.0674
      2 C         139.7744  138.2105  159.9392 C.ar    1  UNL1        0.1133
      3 N         138.9033  137.9626  161.1349 N.ar    1  UNL1       -0.2425
      4 C         139.3815  138.3466  162.5038 C.ar    1  UNL1        0.0825
      5 C         138.5103  138.0987  163.6995 C.ar    1  UNL1        0.0230
      6 C         138.9884  138.4827  165.0684 C.ar    1  UNL1        0.0741
      7 C         140.3378  139.1147  165.2416 C.ar    1  UNL1        0.0183
      8 C         141.2089  139.3626  164.0459 C.ar    1  UNL1        0.0463
      9 C         140.7307  138.9785  162.6770 C.ar    1  UNL1        0.0320
     10 C         141.6019  139.2264  161.4814 C.ar    1  UNL1        0.0188
     11 O         144.3750  139.0696  154.0604 O.2     1  UNL1       -0.2523
     12 C         144.6083  139.8340  155.3297 C.2     1  UNL1        0.3074
     13 N         145.7127  140.8463  155.4034 N.am    1  UNL1       -0.2589
     14 C         145.9460  141.6107  156.6728 C.3     1  UNL1        0.1270
     15 C         147.0505  142.6230  156.7464 C.3     1  UNL1        0.1637
     16 O         147.9217  142.8709  155.5508 O.3     1  UNL1       -0.3501
     17 C         147.6884  142.1065  154.2814 C.3     1  UNL1        0.1637
     18 C         146.5839  141.0942  154.2077 C.3     1  UNL1        0.1270
     19 N         143.7372  139.5861  156.5254 N.am    1  UNL1       -0.2605
     20 C         142.6327  138.5738  156.4517 C.3     1  UNL1        0.1164
     21 C         141.7616  138.3259  157.6474 C.3     1  UNL1        0.1124
     22 N         141.9949  139.0903  158.9168 N.pl3   1  UNL1       -0.3028
     23 C         143.0993  140.1026  158.9904 C.3     1  UNL1        0.1124
     24 C         143.9705  140.3505  157.7947 C.3     1  UNL1        0.1164
     25 C         138.1173  138.2348  166.2641 C.3     1  UNL1        0.4187
     26 F         137.2462  137.9869  167.4598 F       1  UNL1       -0.1659
     27 F         138.1411  136.7629  165.9762 F       1  UNL1       -0.1659
     28 F         138.0936  139.7067  166.5519 F       1  UNL1       -0.1659
     29 N         142.5582  139.9945  164.2191 N.pl3   1  UNL1       -0.3290
     30 H         143.3493  139.4304  164.3776 H       1  UNL1        0.1471
     31 C         142.7022  141.4860  164.1509 C.3     1  UNL1        0.1145
     32 C         141.5115  142.3662  164.3910 C.ar    1  UNL1        0.0035
     33 C         141.0952  142.6988  165.7932 C.ar    1  UNL1       -0.0022
     34 C         139.9046  143.5789  166.0333 C.ar    1  UNL1        0.0060
     35 C         139.1301  144.1266  164.8712 C.ar    1  UNL1        0.0752
     36 C         139.5464  143.7940  163.4691 C.ar    1  UNL1        0.2898
     37 C         140.7371  142.9138  163.2290 C.ar    1  UNL1        0.0727
     38 N         138.7720  144.3416  162.3070 N.pl3   1  UNL1        0.0809
     39 O         137.8965  143.4341  161.4947 O.2     1  UNL1        0.0415
     40 O         138.8732  145.7967  161.9572 O.co2   1  UNL1       -0.5760
@<TRIPOS>UNITY_ATOM_ATTR
38 1
charge 1
40 1
charge -1
@<TRIPOS>BOND
     1    11    12    2
     2    12    13   am
     3    13    14    1
     4    14    15    1
     5    15    16    1
     6    16    17    1
     7    17    18    1
     8    12    19   am
     9    19    20    1
    10    20    21    1
    11    21    22    1
    12    22     1    1
    13     1     2   ar
    14     2     3   ar
    15     3     4   ar
    16     4     5   ar
    17     5     6   ar
    18     6    25    1
    19    25    26    1
    20    25    27    1
    21    25    28    1
    22     6     7   ar
    23     7     8   ar
    24     8    29    1
    25    29    31    1
    26    31    32    1
    27    32    33   ar
    28    33    34   ar
    29    34    35   ar
    30    35    36   ar
    31    36    38    1
    32    38    39    2
    33    38    40    1
    34    36    37   ar
    35     8     9   ar
    36     9    10   ar
    37    22    23    1
    38    23    24    1
    39    18    13    1
    40    24    19    1
    41    10     1   ar
    42     9     4   ar
    43    37    32   ar
    44    29    30    1
