@<TRIPOS>MOLECULE
*****
 46 52 0 0 0
SMALL
GASTEIGER

@<TRIPOS>ATOM
      1 C         141.8032  140.5105  159.8066 C.ar    1  UNL1        0.1669
      2 N         140.6302  140.7643  160.7065 N.ar    1  UNL1       -0.2221
      3 C         140.7599  142.1538  161.2564 C.ar    1  UNL1        0.1307
      4 C         139.8988  142.9463  162.1946 C.ar    1  UNL1        0.0777
      5 C         140.2909  144.3439  162.5730 C.ar    1  UNL1        0.0893
      6 CL        139.4298  145.1365  163.5113 Cl      1  UNL1       -0.0794
      7 C         141.5440  144.9489  162.0130 C.ar    1  UNL1        0.0863
      8 N         142.4051  144.1564  161.0747 N.ar    1  UNL1       -0.3354
      9 C         142.0131  142.7588  160.6964 C.ar    1  UNL1        0.1613
     10 N         142.6579  141.7432  159.8004 N.ar    1  UNL1       -0.2080
     11 H         143.2276  144.5535  160.7072 H       1  UNL1        0.1675
     12 C         142.5961  138.0368  159.7641 C.ar    1  UNL1        0.1428
     13 C         142.8669  136.7724  159.0038 C.ar    1  UNL1        0.0515
     14 C         142.6156  136.7172  157.5260 C.ar    1  UNL1        0.0509
     15 C         142.0934  137.9265  156.8085 C.ar    1  UNL1        0.0148
     16 C         141.8227  139.1909  157.5687 C.ar    1  UNL1        0.0074
     17 C         142.0740  139.2461  159.0465 C.ar    1  UNL1        0.0698
     18 N         142.8864  135.4528  156.7659 N.pl3   1  UNL1       -0.3073
     19 C         142.4231  135.3178  155.3456 C.3     1  UNL1        0.0922
     20 C         142.6939  134.0533  154.5855 C.3     1  UNL1        0.0374
     21 C         143.4280  132.9240  155.2455 C.3     1  UNL1        0.0610
     22 C         143.8913  133.0590  156.6658 C.3     1  UNL1        0.0374
     23 C         143.6205  134.3234  157.4259 C.3     1  UNL1        0.0922
     24 N         143.6988  131.6595  154.4853 N.3     1  UNL1       -0.2715
     25 C         144.4792  130.5510  155.1273 C.3     1  UNL1        0.0896
     26 C         144.7500  129.2866  154.3671 C.3     1  UNL1        0.0897
     27 N         144.2404  129.1306  152.9650 N.3     1  UNL1       -0.2691
     28 C         144.5113  127.8661  152.2048 C.3     1  UNL1        0.0897
     29 C         143.4600  130.2392  152.3230 C.3     1  UNL1        0.0897
     30 C         143.1892  131.5036  153.0832 C.3     1  UNL1        0.0896
     31 C         141.7683  137.6873  162.2018 C.3     1  UNL1        0.2525
     32 O         142.8475  138.0918  161.2418 O.3     1  UNL1       -0.4713
     33 N         138.6456  142.3413  162.7547 N.pl3   1  UNL1       -0.3313
     34 H         137.7660  142.6813  162.4719 H       1  UNL1        0.1469
     35 C         138.7327  141.2185  163.7454 C.3     1  UNL1        0.0819
     36 C         138.4098  139.7785  163.4766 C.3     1  UNL1        0.0983
     37 C         138.6354  139.0085  164.7439 C.3     1  UNL1        0.0323
     38 C         139.0607  139.1284  166.1773 C.2     1  UNL1       -0.0304
     39 C         139.3836  140.5683  166.4462 C.2     1  UNL1       -0.0294
     40 C         139.1579  141.3384  165.1788 C.3     1  UNL1        0.0404
     41 C         138.6955  140.3744  164.1267 C.3     1  UNL1        0.0109
     42 C         137.9431  139.2086  162.1698 C.2     1  UNL1        0.2208
     43 N         138.0910  137.7413  161.8960 N.am    1  UNL1       -0.3288
     44 O         137.3286  140.1061  161.1369 O.2     1  UNL1       -0.2753
     45 H         138.4943  137.1522  162.5739 H       1  UNL1        0.1449
     46 H         137.7847  137.3673  161.0384 H       1  UNL1        0.1449
@<TRIPOS>BOND
     1    31    32    1
     2    32    12    1
     3    12    13   ar
     4    13    14   ar
     5    14    18    1
     6    18    19    1
     7    19    20    1
     8    20    21    1
     9    21    24    1
    10    24    25    1
    11    25    26    1
    12    26    27    1
    13    27    28    1
    14    27    29    1
    15    29    30    1
    16    21    22    1
    17    22    23    1
    18    14    15   ar
    19    15    16   ar
    20    16    17   ar
    21    17     1    1
    22     1     2   ar
    23     2     3   ar
    24     3     4   ar
    25     4    33    1
    26    35    33    1
    27    35    36    1
    28    36    42    1
    29    42    43   am
    30    42    44    2
    31    36    37    1
    32    37    38    1
    33    38    39    2
    34    40    39    1
    35    40    41    1
    36     4     5   ar
    37     5     6    1
    38     5     7   ar
    39     7     8   ar
    40     8     9   ar
    41     9    10   ar
    42    17    12   ar
    43    10     1   ar
    44    23    18    1
    45     9     3    1
    46    30    24    1
    47    40    35    1
    48    41    37    1
    49    33    34    1
    50    43    45    1
    51    43    46    1
    52     8    11    1
@<TRIPOS>MOLECULE
*****
 46 52 0 0 0
SMALL
GASTEIGER

@<TRIPOS>ATOM
      1 C         142.9894  140.6697  160.3033 C.ar    1  UNL1        0.1669
      2 N         141.8626  141.3554  161.0176 N.ar    1  UNL1       -0.2221
      3 C         142.4202  142.5630  161.7111 C.ar    1  UNL1        0.1307
      4 C         141.7781  143.6152  162.5658 C.ar    1  UNL1        0.0777
      5 C         142.6075  144.7282  163.1348 C.ar    1  UNL1        0.0893
      6 CL        141.9654  145.7805  163.9895 Cl      1  UNL1       -0.0794
      7 C         144.0787  144.7888  162.8491 C.ar    1  UNL1        0.0863
      8 N         144.7207  143.7365  161.9944 N.ar    1  UNL1       -0.3354
      9 C         143.8914  142.6237  161.4253 C.ar    1  UNL1        0.1613
     10 N         144.2433  141.4535  160.5553 N.ar    1  UNL1       -0.2080
     11 H         145.6864  143.7764  161.8068 H       1  UNL1        0.1675
     12 C         142.9006  138.0776  160.1511 C.ar    1  UNL1        0.1428
     13 C         142.7925  136.8276  159.3290 C.ar    1  UNL1        0.0515
     14 C         142.6652  136.9195  157.8372 C.ar    1  UNL1        0.0509
     15 C         142.6459  138.2616  157.1675 C.ar    1  UNL1        0.0148
     16 C         142.7540  139.5116  157.9896 C.ar    1  UNL1        0.0074
     17 C         142.8813  139.4196  159.4813 C.ar    1  UNL1        0.0698
     18 N         142.5571  135.6695  157.0152 N.pl3   1  UNL1       -0.3073
     19 C         143.3249  134.4432  157.4107 C.3     1  UNL1        0.0922
     20 C         143.2168  133.1931  156.5887 C.3     1  UNL1        0.0374
     21 C         142.3410  133.1694  155.3713 C.3     1  UNL1        0.0610
     22 C         141.5731  134.3957  154.9758 C.3     1  UNL1        0.0374
     23 C         141.6812  135.6458  155.7978 C.3     1  UNL1        0.0922
     24 N         142.2329  131.9193  154.5493 N.3     1  UNL1       -0.2715
     25 C         143.2226  131.6541  153.4538 C.3     1  UNL1        0.0896
     26 C         143.1145  130.4041  152.6318 C.3     1  UNL1        0.0897
     27 N         142.0167  129.4192  152.9053 N.3     1  UNL1       -0.2691
     28 C         141.9087  128.1691  152.0833 C.3     1  UNL1        0.0897
     29 C         141.0271  129.6843  154.0009 C.3     1  UNL1        0.0897
     30 C         141.1351  130.9344  154.8229 C.3     1  UNL1        0.0896
     31 C         141.8287  137.6489  162.4786 C.3     1  UNL1        0.2525
     32 O         143.0279  137.9856  161.6428 O.3     1  UNL1       -0.4713
     33 N         140.3068  143.5547  162.8515 N.pl3   1  UNL1       -0.3313
     34 H         139.7004  144.2211  162.4548 H       1  UNL1        0.1469
     35 C         139.7594  142.4787  163.7418 C.3     1  UNL1        0.0819
     36 C         138.6288  141.5504  163.4100 C.3     1  UNL1        0.0983
     37 C         138.4171  140.6400  164.5832 C.3     1  UNL1        0.0323
     38 C         138.9040  140.3034  165.9615 C.2     1  UNL1       -0.0304
     39 C         140.0346  141.2317  166.2932 C.2     1  UNL1       -0.0294
     40 C         140.2463  142.1421  165.1200 C.3     1  UNL1        0.0404
     41 C         139.2467  141.7764  164.0631 C.3     1  UNL1        0.0109
     42 C         137.8472  141.5351  162.1298 C.2     1  UNL1        0.2208
     43 N         137.2670  140.2490  161.6206 N.am    1  UNL1       -0.3288
     44 O         137.6458  142.8059  161.3588 O.2     1  UNL1       -0.2753
     45 H         137.3992  139.4149  162.1266 H       1  UNL1        0.1449
     46 H         136.7540  140.2389  160.7804 H       1  UNL1        0.1449
@<TRIPOS>BOND
     1    31    32    1
     2    32    12    1
     3    12    13   ar
     4    13    14   ar
     5    14    18    1
     6    18    19    1
     7    19    20    1
     8    20    21    1
     9    21    24    1
    10    24    25    1
    11    25    26    1
    12    26    27    1
    13    27    28    1
    14    27    29    1
    15    29    30    1
    16    21    22    1
    17    22    23    1
    18    14    15   ar
    19    15    16   ar
    20    16    17   ar
    21    17     1    1
    22     1     2   ar
    23     2     3   ar
    24     3     4   ar
    25     4    33    1
    26    35    33    1
    27    35    36    1
    28    36    42    1
    29    42    43   am
    30    42    44    2
    31    36    37    1
    32    37    38    1
    33    38    39    2
    34    40    39    1
    35    40    41    1
    36     4     5   ar
    37     5     6    1
    38     5     7   ar
    39     7     8   ar
    40     8     9   ar
    41     9    10   ar
    42    17    12   ar
    43    10     1   ar
    44    23    18    1
    45     9     3    1
    46    30    24    1
    47    40    35    1
    48    41    37    1
    49    33    34    1
    50    43    45    1
    51    43    46    1
    52     8    11    1
@<TRIPOS>MOLECULE
*****
 46 52 0 0 0
SMALL
GASTEIGER

@<TRIPOS>ATOM
      1 C         141.1234  140.9388  160.7886 C.ar    1  UNL1        0.1669
      2 N         140.3016  140.9588  162.0434 N.ar    1  UNL1       -0.2221
      3 C         140.2057  142.3805  162.5119 C.ar    1  UNL1        0.1307
      4 C         139.5226  143.0042  163.6927 C.ar    1  UNL1        0.0777
      5 C         139.6019  144.4865  163.9083 C.ar    1  UNL1        0.0893
      6 CL        138.9188  145.1103  165.0892 Cl      1  UNL1       -0.0794
      7 C         140.3643  145.3451  162.9432 C.ar    1  UNL1        0.0863
      8 N         141.0474  144.7214  161.7624 N.ar    1  UNL1       -0.3354
      9 C         140.9681  143.2391  161.5467 C.ar    1  UNL1        0.1613
     10 N         141.5353  142.3481  160.4817 N.ar    1  UNL1       -0.2080
     11 H         141.5479  145.2849  161.1290 H       1  UNL1        0.1675
     12 C         142.6287  138.8592  160.3897 C.ar    1  UNL1        0.1428
     13 C         142.9773  137.6433  159.5833 C.ar    1  UNL1        0.0515
     14 C         142.1692  137.2911  158.3697 C.ar    1  UNL1        0.0509
     15 C         141.0125  138.1548  157.9624 C.ar    1  UNL1        0.0148
     16 C         140.6639  139.3707  158.7687 C.ar    1  UNL1        0.0074
     17 C         141.4720  139.7229  159.9823 C.ar    1  UNL1        0.0698
     18 N         142.5178  136.0752  157.5634 N.pl3   1  UNL1       -0.3073
     19 C         143.3597  134.9907  158.1677 C.3     1  UNL1        0.0922
     20 C         143.7083  133.7748  157.3614 C.3     1  UNL1        0.0374
     21 C         143.2151  133.6434  155.9510 C.3     1  UNL1        0.0610
     22 C         142.3733  134.7280  155.3467 C.3     1  UNL1        0.0374
     23 C         142.0246  135.9438  156.1529 C.3     1  UNL1        0.0922
     24 N         143.5638  132.4275  155.1447 N.3     1  UNL1       -0.2715
     25 C         142.9761  132.2405  153.7774 C.3     1  UNL1        0.0896
     26 C         143.3247  131.0246  152.9711 C.3     1  UNL1        0.0897
     27 N         144.2610  129.9958  153.5321 N.3     1  UNL1       -0.2691
     28 C         144.6096  128.7799  152.7258 C.3     1  UNL1        0.0897
     29 C         144.8487  130.1828  154.8995 C.3     1  UNL1        0.0897
     30 C         144.5001  131.3987  155.7057 C.3     1  UNL1        0.0896
     31 C         143.1608  138.5312  162.9115 C.3     1  UNL1        0.2525
     32 O         143.4369  139.2112  161.6033 O.3     1  UNL1       -0.4713
     33 N         138.7601  142.1456  164.6579 N.pl3   1  UNL1       -0.3313
     34 H         137.8042  141.9649  164.5070 H       1  UNL1        0.1469
     35 C         139.4541  141.5624  165.8529 C.3     1  UNL1        0.0819
     36 C         139.3471  140.1441  166.3295 C.3     1  UNL1        0.0983
     37 C         140.2039  140.0001  167.5523 C.3     1  UNL1        0.0323
     38 C         141.1268  140.7327  168.4805 C.2     1  UNL1       -0.0304
     39 C         141.2338  142.1509  168.0040 C.2     1  UNL1       -0.0294
     40 C         140.3770  142.2949  166.7812 C.3     1  UNL1        0.0404
     41 C         139.7405  140.9657  166.5020 C.3     1  UNL1        0.0109
     42 C         138.5273  139.0601  165.6947 C.2     1  UNL1        0.2208
     43 N         138.7685  138.6772  164.2646 N.am    1  UNL1       -0.3288
     44 O         137.4661  138.3591  166.4900 O.2     1  UNL1       -0.2753
     45 H         139.4650  139.1373  163.7426 H       1  UNL1        0.1449
     46 H         138.2305  137.9658  163.8480 H       1  UNL1        0.1449
@<TRIPOS>BOND
     1    31    32    1
     2    32    12    1
     3    12    13   ar
     4    13    14   ar
     5    14    18    1
     6    18    19    1
     7    19    20    1
     8    20    21    1
     9    21    24    1
    10    24    25    1
    11    25    26    1
    12    26    27    1
    13    27    28    1
    14    27    29    1
    15    29    30    1
    16    21    22    1
    17    22    23    1
    18    14    15   ar
    19    15    16   ar
    20    16    17   ar
    21    17     1    1
    22     1     2   ar
    23     2     3   ar
    24     3     4   ar
    25     4    33    1
    26    35    33    1
    27    35    36    1
    28    36    42    1
    29    42    43   am
    30    42    44    2
    31    36    37    1
    32    37    38    1
    33    38    39    2
    34    40    39    1
    35    40    41    1
    36     4     5   ar
    37     5     6    1
    38     5     7   ar
    39     7     8   ar
    40     8     9   ar
    41     9    10   ar
    42    17    12   ar
    43    10     1   ar
    44    23    18    1
    45     9     3    1
    46    30    24    1
    47    40    35    1
    48    41    37    1
    49    33    34    1
    50    43    45    1
    51    43    46    1
    52     8    11    1
@<TRIPOS>MOLECULE
*****
 46 52 0 0 0
SMALL
GASTEIGER

@<TRIPOS>ATOM
      1 C         141.1856  140.8876  158.6814 C.ar    1  UNL1        0.1669
      2 N         141.2492  141.2349  160.1392 N.ar    1  UNL1       -0.2221
      3 C         140.9768  142.7034  160.2782 C.ar    1  UNL1        0.1307
      4 C         140.9100  143.6027  161.4768 C.ar    1  UNL1        0.0777
      5 C         140.6111  145.0625  161.3034 C.ar    1  UNL1        0.0893
      6 CL        140.5443  145.9619  162.5020 Cl      1  UNL1       -0.0794
      7 C         140.3791  145.6227  159.9315 C.ar    1  UNL1        0.0863
      8 N         140.4459  144.7233  158.7329 N.ar    1  UNL1       -0.3354
      9 C         140.7447  143.2637  158.9062 C.ar    1  UNL1        0.1613
     10 N         140.8738  142.1414  157.9193 N.ar    1  UNL1       -0.2080
     11 H         140.2936  145.0911  157.8324 H       1  UNL1        0.1675
     12 C         142.6952  138.8067  158.3061 C.ar    1  UNL1        0.1428
     13 C         142.9062  137.4446  157.7141 C.ar    1  UNL1        0.0515
     14 C         141.8188  136.8016  156.9055 C.ar    1  UNL1        0.0509
     15 C         140.5203  137.5205  156.6888 C.ar    1  UNL1        0.0148
     16 C         140.3093  138.8825  157.2808 C.ar    1  UNL1        0.0074
     17 C         141.3967  139.5256  158.0894 C.ar    1  UNL1        0.0698
     18 N         142.0299  135.4396  156.3135 N.pl3   1  UNL1       -0.3073
     19 C         141.2543  135.0210  155.0998 C.3     1  UNL1        0.0922
     20 C         141.4654  133.6590  154.5078 C.3     1  UNL1        0.0374
     21 C         142.4520  132.7156  155.1296 C.3     1  UNL1        0.0610
     22 C         143.2276  133.1342  156.3434 C.3     1  UNL1        0.0374
     23 C         143.0165  134.4962  156.9354 C.3     1  UNL1        0.0922
     24 N         142.6630  131.3536  154.5376 N.3     1  UNL1       -0.2715
     25 C         142.7593  131.1892  153.0498 C.3     1  UNL1        0.0896
     26 C         142.9704  129.8272  152.4579 C.3     1  UNL1        0.0897
     27 N         143.0852  128.6296  153.3538 N.3     1  UNL1       -0.2691
     28 C         143.2963  127.2676  152.7617 C.3     1  UNL1        0.0897
     29 C         142.9890  128.7941  154.8416 C.3     1  UNL1        0.0897
     30 C         142.7779  130.1561  155.4335 C.3     1  UNL1        0.0896
     31 C         144.0328  139.0032  160.5248 C.3     1  UNL1        0.2525
     32 O         143.7826  139.4497  159.1148 O.3     1  UNL1       -0.4713
     33 N         141.1420  143.0425  162.8488 N.pl3   1  UNL1       -0.3313
     34 H         141.9602  143.2762  163.3440 H       1  UNL1        0.1469
     35 C         140.1276  142.1262  163.4662 C.3     1  UNL1        0.0819
     36 C         138.7738  142.5244  163.9747 C.3     1  UNL1        0.0983
     37 C         138.0983  141.2951  164.5063 C.3     1  UNL1        0.0323
     38 C         138.2595  139.8197  164.7236 C.2     1  UNL1       -0.0304
     39 C         139.6133  139.4215  164.2150 C.2     1  UNL1       -0.0294
     40 C         140.2888  140.6508  163.6835 C.3     1  UNL1        0.0404
     41 C         139.3525  141.8088  163.8634 C.3     1  UNL1        0.0109
     42 C         138.1967  143.9089  163.9551 C.2     1  UNL1        0.2208
     43 N         137.4265  144.3835  162.7587 N.am    1  UNL1       -0.3288
     44 O         138.3900  144.8187  165.1319 O.2     1  UNL1       -0.2753
     45 H         137.2997  143.7864  161.9863 H       1  UNL1        0.1449
     46 H         137.0478  145.2921  162.7458 H       1  UNL1        0.1449
@<TRIPOS>BOND
     1    31    32    1
     2    32    12    1
     3    12    13   ar
     4    13    14   ar
     5    14    18    1
     6    18    19    1
     7    19    20    1
     8    20    21    1
     9    21    24    1
    10    24    25    1
    11    25    26    1
    12    26    27    1
    13    27    28    1
    14    27    29    1
    15    29    30    1
    16    21    22    1
    17    22    23    1
    18    14    15   ar
    19    15    16   ar
    20    16    17   ar
    21    17     1    1
    22     1     2   ar
    23     2     3   ar
    24     3     4   ar
    25     4    33    1
    26    35    33    1
    27    35    36    1
    28    36    42    1
    29    42    43   am
    30    42    44    2
    31    36    37    1
    32    37    38    1
    33    38    39    2
    34    40    39    1
    35    40    41    1
    36     4     5   ar
    37     5     6    1
    38     5     7   ar
    39     7     8   ar
    40     8     9   ar
    41     9    10   ar
    42    17    12   ar
    43    10     1   ar
    44    23    18    1
    45     9     3    1
    46    30    24    1
    47    40    35    1
    48    41    37    1
    49    33    34    1
    50    43    45    1
    51    43    46    1
    52     8    11    1
@<TRIPOS>MOLECULE
*****
 46 52 0 0 0
SMALL
GASTEIGER

@<TRIPOS>ATOM
      1 C         141.1331  140.9080  158.5839 C.ar    1  UNL1        0.1669
      2 N         141.2205  141.2558  160.0404 N.ar    1  UNL1       -0.2221
      3 C         140.9386  142.7220  160.1845 C.ar    1  UNL1        0.1307
      4 C         140.8863  143.6208  161.3842 C.ar    1  UNL1        0.0777
      5 C         140.5724  145.0780  161.2165 C.ar    1  UNL1        0.0893
      6 CL        140.5201  145.9769  162.4163 Cl      1  UNL1       -0.0794
      7 C         140.3108  145.6363  159.8492 C.ar    1  UNL1        0.0863
      8 N         140.3631  144.7375  158.6494 N.ar    1  UNL1       -0.3354
      9 C         140.6770  143.2803  158.8171 C.ar    1  UNL1        0.1613
     10 N         140.7972  142.1592  157.8279 N.ar    1  UNL1       -0.2080
     11 H         140.1914  145.1040  157.7520 H       1  UNL1        0.1675
     12 C         140.1791  138.7810  157.4367 C.ar    1  UNL1        0.1428
     13 C         140.3907  137.4208  156.8408 C.ar    1  UNL1        0.0515
     14 C         141.7675  136.8272  156.7963 C.ar    1  UNL1        0.0509
     15 C         142.9329  137.5939  157.3476 C.ar    1  UNL1        0.0148
     16 C         142.7214  138.9542  157.9435 C.ar    1  UNL1        0.0074
     17 C         141.3446  139.5477  157.9880 C.ar    1  UNL1        0.0698
     18 N         141.9789  135.4670  156.2004 N.pl3   1  UNL1       -0.3073
     19 C         141.2053  135.0527  154.9839 C.3     1  UNL1        0.0922
     20 C         141.4168  133.6925  154.3880 C.3     1  UNL1        0.0374
     21 C         142.4016  132.7466  155.0085 C.3     1  UNL1        0.0610
     22 C         143.1753  133.1609  156.2251 C.3     1  UNL1        0.0374
     23 C         142.9638  134.5211  156.8210 C.3     1  UNL1        0.0922
     24 N         142.6131  131.3864  154.4127 N.3     1  UNL1       -0.2715
     25 C         142.1338  130.1658  155.1410 C.3     1  UNL1        0.0896
     26 C         142.3452  128.8055  154.5451 C.3     1  UNL1        0.0897
     27 N         143.0359  128.6659  153.2209 N.3     1  UNL1       -0.2691
     28 C         143.2473  127.3056  152.6251 C.3     1  UNL1        0.0897
     29 C         143.5151  129.8865  152.4926 C.3     1  UNL1        0.0897
     30 C         143.3037  131.2467  153.0885 C.3     1  UNL1        0.0896
     31 C         138.2766  140.1390  156.3026 C.3     1  UNL1        0.2525
     32 O         138.8023  139.3745  157.4812 O.3     1  UNL1       -0.4713
     33 N         141.1480  143.0625  162.7517 N.pl3   1  UNL1       -0.3313
     34 H         141.9810  143.2893  163.2249 H       1  UNL1        0.1469
     35 C         140.1404  142.1587  163.3982 C.3     1  UNL1        0.0819
     36 C         138.8046  142.5726  163.9405 C.3     1  UNL1        0.0983
     37 C         138.1304  141.3520  164.4934 C.3     1  UNL1        0.0323
     38 C         138.2817  139.8756  164.7109 C.2     1  UNL1       -0.0304
     39 C         139.6176  139.4617  164.1686 C.2     1  UNL1       -0.0294
     40 C         140.2918  140.6823  163.6158 C.3     1  UNL1        0.0404
     41 C         139.3727  141.8506  163.8165 C.3     1  UNL1        0.0109
     42 C         138.2418  143.9630  163.9317 C.2     1  UNL1        0.2208
     43 N         137.4178  144.4312  162.7690 N.am    1  UNL1       -0.3288
     44 O         138.5029  144.8852  165.0856 O.2     1  UNL1       -0.2753
     45 H         137.2465  143.8260  162.0117 H       1  UNL1        0.1449
     46 H         137.0485  145.3438  162.7632 H       1  UNL1        0.1449
@<TRIPOS>BOND
     1    31    32    1
     2    32    12    1
     3    12    13   ar
     4    13    14   ar
     5    14    18    1
     6    18    19    1
     7    19    20    1
     8    20    21    1
     9    21    24    1
    10    24    25    1
    11    25    26    1
    12    26    27    1
    13    27    28    1
    14    27    29    1
    15    29    30    1
    16    21    22    1
    17    22    23    1
    18    14    15   ar
    19    15    16   ar
    20    16    17   ar
    21    17     1    1
    22     1     2   ar
    23     2     3   ar
    24     3     4   ar
    25     4    33    1
    26    35    33    1
    27    35    36    1
    28    36    42    1
    29    42    43   am
    30    42    44    2
    31    36    37    1
    32    37    38    1
    33    38    39    2
    34    40    39    1
    35    40    41    1
    36     4     5   ar
    37     5     6    1
    38     5     7   ar
    39     7     8   ar
    40     8     9   ar
    41     9    10   ar
    42    17    12   ar
    43    10     1   ar
    44    23    18    1
    45     9     3    1
    46    30    24    1
    47    40    35    1
    48    41    37    1
    49    33    34    1
    50    43    45    1
    51    43    46    1
    52     8    11    1
@<TRIPOS>MOLECULE
*****
 46 52 0 0 0
SMALL
GASTEIGER

@<TRIPOS>ATOM
      1 C         141.1051  140.8011  159.6945 C.ar    1  UNL1        0.1669
      2 N         140.5820  140.8633  161.0989 N.ar    1  UNL1       -0.2221
      3 C         140.4219  142.3077  161.4704 C.ar    1  UNL1        0.1307
      4 C         139.9447  142.9739  162.7268 C.ar    1  UNL1        0.0777
      5 C         139.8917  144.4708  162.8082 C.ar    1  UNL1        0.0893
      6 CL        139.4145  145.1372  164.0646 Cl      1  UNL1       -0.0794
      7 C         140.3159  145.3013  161.6334 C.ar    1  UNL1        0.0863
      8 N         140.7931  144.6351  160.3771 N.ar    1  UNL1       -0.3354
      9 C         140.8461  143.1383  160.2956 C.ar    1  UNL1        0.1613
     10 N         141.2683  142.2071  159.1980 N.ar    1  UNL1       -0.2080
     11 H         141.0715  145.1802  159.6060 H       1  UNL1        0.1675
     12 C         142.6083  138.7228  159.2812 C.ar    1  UNL1        0.1428
     13 C         142.9144  137.4739  158.5087 C.ar    1  UNL1        0.0515
     14 C         142.0234  137.0545  157.3772 C.ar    1  UNL1        0.0509
     15 C         140.8263  137.8839  157.0182 C.ar    1  UNL1        0.0148
     16 C         140.5203  139.1328  157.7906 C.ar    1  UNL1        0.0074
     17 C         141.4112  139.5523  158.9221 C.ar    1  UNL1        0.0698
     18 N         142.3295  135.8056  156.6048 N.pl3   1  UNL1       -0.3073
     19 C         141.4015  135.3494  155.5183 C.3     1  UNL1        0.0922
     20 C         141.7076  134.1005  154.7459 C.3     1  UNL1        0.0374
     21 C         142.9417  133.3079  155.0600 C.3     1  UNL1        0.0610
     22 C         143.8698  133.7642  156.1465 C.3     1  UNL1        0.0374
     23 C         143.5637  135.0131  156.9189 C.3     1  UNL1        0.0922
     24 N         143.2478  132.0590  154.2876 N.3     1  UNL1       -0.2715
     25 C         142.7733  131.9176  152.8716 C.3     1  UNL1        0.0896
     26 C         143.0795  130.6688  152.0992 C.3     1  UNL1        0.0897
     27 N         143.8601  129.5613  152.7428 N.3     1  UNL1       -0.2691
     28 C         144.1662  128.3124  151.9703 C.3     1  UNL1        0.0897
     29 C         144.3346  129.7027  154.1587 C.3     1  UNL1        0.0897
     30 C         144.0284  130.9516  154.9311 C.3     1  UNL1        0.0896
     31 C         144.0711  138.1103  161.3391 C.3     1  UNL1        0.2525
     32 O         143.4993  139.1421  160.4126 O.3     1  UNL1       -0.4713
     33 N         139.5205  142.1434  163.9017 N.pl3   1  UNL1       -0.3313
     34 H         138.6565  141.6718  163.8848 H       1  UNL1        0.1469
     35 C         140.4128  142.0314  165.1022 C.3     1  UNL1        0.0819
     36 C         141.7058  141.2742  165.1721 C.3     1  UNL1        0.0983
     37 C         142.2609  141.4317  166.5567 C.3     1  UNL1        0.0323
     38 C         142.0169  142.0572  167.8980 C.2     1  UNL1       -0.0304
     39 C         140.7240  142.8144  167.8281 C.2     1  UNL1       -0.0294
     40 C         140.1688  142.6569  166.4435 C.3     1  UNL1        0.0404
     41 C         141.1187  141.8023  165.6577 C.3     1  UNL1        0.0109
     42 C         142.3334  140.4961  164.0537 C.2     1  UNL1        0.2208
     43 N         141.7609  139.1700  163.6491 N.am    1  UNL1       -0.3288
     44 O         143.5337  141.0440  163.3402 O.2     1  UNL1       -0.2753
     45 H         140.9732  138.8104  164.1174 H       1  UNL1        0.1449
     46 H         142.1729  138.6594  162.9151 H       1  UNL1        0.1449
@<TRIPOS>BOND
     1    31    32    1
     2    32    12    1
     3    12    13   ar
     4    13    14   ar
     5    14    18    1
     6    18    19    1
     7    19    20    1
     8    20    21    1
     9    21    24    1
    10    24    25    1
    11    25    26    1
    12    26    27    1
    13    27    28    1
    14    27    29    1
    15    29    30    1
    16    21    22    1
    17    22    23    1
    18    14    15   ar
    19    15    16   ar
    20    16    17   ar
    21    17     1    1
    22     1     2   ar
    23     2     3   ar
    24     3     4   ar
    25     4    33    1
    26    35    33    1
    27    35    36    1
    28    36    42    1
    29    42    43   am
    30    42    44    2
    31    36    37    1
    32    37    38    1
    33    38    39    2
    34    40    39    1
    35    40    41    1
    36     4     5   ar
    37     5     6    1
    38     5     7   ar
    39     7     8   ar
    40     8     9   ar
    41     9    10   ar
    42    17    12   ar
    43    10     1   ar
    44    23    18    1
    45     9     3    1
    46    30    24    1
    47    40    35    1
    48    41    37    1
    49    33    34    1
    50    43    45    1
    51    43    46    1
    52     8    11    1
@<TRIPOS>MOLECULE
*****
 46 52 0 0 0
SMALL
GASTEIGER

@<TRIPOS>ATOM
      1 C         141.3352  137.9597  157.3348 C.ar    1  UNL1        0.1669
      2 N         141.3049  136.5292  156.8845 N.ar    1  UNL1       -0.2221
      3 C         141.5046  136.5070  155.3980 C.ar    1  UNL1        0.1307
      4 C         141.5664  135.3796  154.4105 C.ar    1  UNL1        0.0777
      5 C         141.7819  135.6691  152.9545 C.ar    1  UNL1        0.0893
      6 CL        141.8436  134.5417  151.9668 Cl      1  UNL1       -0.0794
      7 C         141.9356  137.0857  152.4861 C.ar    1  UNL1        0.0863
      8 N         141.8739  138.2130  153.4737 N.ar    1  UNL1       -0.3354
      9 C         141.6584  137.9236  154.9297 C.ar    1  UNL1        0.1613
     10 N         141.5537  138.8215  156.1267 N.ar    1  UNL1       -0.2080
     11 H         141.9748  139.1428  153.1663 H       1  UNL1        0.1675
     12 C         142.3597  138.9794  159.4937 C.ar    1  UNL1        0.1428
     13 C         142.1996  139.4632  160.9045 C.ar    1  UNL1        0.0515
     14 C         140.8549  139.4111  161.5672 C.ar    1  UNL1        0.0509
     15 C         139.6704  138.8752  160.8192 C.ar    1  UNL1        0.0148
     16 C         139.8305  138.3914  159.4084 C.ar    1  UNL1        0.0074
     17 C         141.1752  138.4435  158.7456 C.ar    1  UNL1        0.0698
     18 N         140.6949  139.8949  162.9780 N.pl3   1  UNL1       -0.3073
     19 C         139.3336  139.9365  163.6066 C.3     1  UNL1        0.0922
     20 C         139.1736  140.4203  165.0174 C.3     1  UNL1        0.0374
     21 C         140.3747  140.8624  165.7996 C.3     1  UNL1        0.0610
     22 C         141.7360  140.8208  165.1709 C.3     1  UNL1        0.0374
     23 C         141.8961  140.3370  163.7601 C.3     1  UNL1        0.0922
     24 N         140.2146  141.3462  167.2103 N.3     1  UNL1       -0.2715
     25 C         139.6976  140.4166  168.2679 C.3     1  UNL1        0.0896
     26 C         139.5375  140.9004  169.6787 C.3     1  UNL1        0.0897
     27 N         139.8945  142.3138  170.0319 N.3     1  UNL1       -0.2691
     28 C         139.7344  142.7976  171.4428 C.3     1  UNL1        0.0897
     29 C         140.4115  143.2435  168.9744 C.3     1  UNL1        0.0897
     30 C         140.5716  142.7597  167.5636 C.3     1  UNL1        0.0896
     31 C         144.1473  140.2817  158.1303 C.3     1  UNL1        0.2525
     32 O         143.7044  139.0316  158.8310 O.3     1  UNL1       -0.4713
     33 N         141.4126  133.9629  154.8788 N.pl3   1  UNL1       -0.3313
     34 H         140.5367  133.5173  154.8199 H       1  UNL1        0.1469
     35 C         142.5934  133.2251  155.4367 C.3     1  UNL1        0.0819
     36 C         143.2996  132.0720  154.7873 C.3     1  UNL1        0.0983
     37 C         144.4180  131.6450  155.6912 C.3     1  UNL1        0.0323
     38 C         145.0999  131.9307  156.9963 C.2     1  UNL1       -0.0304
     39 C         144.3937  133.0838  157.6456 C.2     1  UNL1       -0.0294
     40 C         143.2753  133.5108  156.7418 C.3     1  UNL1        0.0404
     41 C         143.2903  132.6216  155.5339 C.3     1  UNL1        0.0109
     42 C         142.9490  131.4543  153.4661 C.2     1  UNL1        0.2208
     43 N         144.0161  130.8070  152.6341 N.am    1  UNL1       -0.3288
     44 O         141.5313  131.4839  152.9770 O.2     1  UNL1       -0.2753
     45 H         144.9465  130.7875  152.9551 H       1  UNL1        0.1449
     46 H         143.7860  130.4015  151.7669 H       1  UNL1        0.1449
@<TRIPOS>BOND
     1    31    32    1
     2    32    12    1
     3    12    13   ar
     4    13    14   ar
     5    14    18    1
     6    18    19    1
     7    19    20    1
     8    20    21    1
     9    21    24    1
    10    24    25    1
    11    25    26    1
    12    26    27    1
    13    27    28    1
    14    27    29    1
    15    29    30    1
    16    21    22    1
    17    22    23    1
    18    14    15   ar
    19    15    16   ar
    20    16    17   ar
    21    17     1    1
    22     1     2   ar
    23     2     3   ar
    24     3     4   ar
    25     4    33    1
    26    35    33    1
    27    35    36    1
    28    36    42    1
    29    42    43   am
    30    42    44    2
    31    36    37    1
    32    37    38    1
    33    38    39    2
    34    40    39    1
    35    40    41    1
    36     4     5   ar
    37     5     6    1
    38     5     7   ar
    39     7     8   ar
    40     8     9   ar
    41     9    10   ar
    42    17    12   ar
    43    10     1   ar
    44    23    18    1
    45     9     3    1
    46    30    24    1
    47    40    35    1
    48    41    37    1
    49    33    34    1
    50    43    45    1
    51    43    46    1
    52     8    11    1
@<TRIPOS>MOLECULE
*****
 46 52 0 0 0
SMALL
GASTEIGER

@<TRIPOS>ATOM
      1 C         141.0678  140.9063  158.4639 C.ar    1  UNL1        0.1669
      2 N         140.8777  141.2760  159.9051 N.ar    1  UNL1       -0.2221
      3 C         140.6531  142.7572  159.9780 C.ar    1  UNL1        0.1307
      4 C         140.4085  143.6796  161.1353 C.ar    1  UNL1        0.0777
      5 C         140.2152  145.1478  160.8964 C.ar    1  UNL1        0.0893
      6 CL        139.9706  146.0702  162.0538 Cl      1  UNL1       -0.0794
      7 C         140.2664  145.6936  159.5002 C.ar    1  UNL1        0.0863
      8 N         140.5110  144.7713  158.3429 N.ar    1  UNL1       -0.3354
      9 C         140.7043  143.3031  158.5817 C.ar    1  UNL1        0.1613
     10 N         140.9606  142.1591  157.6460 N.ar    1  UNL1       -0.2080
     11 H         140.5446  145.1295  157.4265 H       1  UNL1        0.1675
     12 C         142.6173  138.8338  158.2323 C.ar    1  UNL1        0.1428
     13 C         142.8701  137.4536  157.7019 C.ar    1  UNL1        0.0515
     14 C         141.8262  136.7658  156.8729 C.ar    1  UNL1        0.0509
     15 C         140.5296  137.4581  156.5742 C.ar    1  UNL1        0.0148
     16 C         140.2768  138.8383  157.1046 C.ar    1  UNL1        0.0074
     17 C         141.3206  139.5262  157.9336 C.ar    1  UNL1        0.0698
     18 N         142.0791  135.3856  156.3426 N.pl3   1  UNL1       -0.3073
     19 C         143.1267  134.5191  156.9762 C.3     1  UNL1        0.0922
     20 C         143.3796  133.1389  156.4459 C.3     1  UNL1        0.0374
     21 C         142.5849  132.6253  155.2821 C.3     1  UNL1        0.0610
     22 C         141.5371  133.4919  154.6485 C.3     1  UNL1        0.0374
     23 C         141.2843  134.8721  155.1788 C.3     1  UNL1        0.0922
     24 N         142.8377  131.2452  154.7518 N.3     1  UNL1       -0.2715
     25 C         142.5623  130.0485  155.6133 C.3     1  UNL1        0.0896
     26 C         142.8151  128.6684  155.0830 C.3     1  UNL1        0.0897
     27 N         143.3434  128.4848  153.6912 N.3     1  UNL1       -0.2691
     28 C         143.5962  127.1046  153.1610 C.3     1  UNL1        0.0897
     29 C         143.6188  129.6814  152.8297 C.3     1  UNL1        0.0897
     30 C         143.3659  131.0616  153.3600 C.3     1  UNL1        0.0896
     31 C         143.9821  139.0137  160.4357 C.3     1  UNL1        0.2525
     32 O         143.6612  139.5215  159.0612 O.3     1  UNL1       -0.4713
     33 N         140.3573  143.1338  162.5316 N.pl3   1  UNL1       -0.3313
     34 H         139.5059  142.8048  162.9006 H       1  UNL1        0.1469
     35 C         141.6032  143.0893  163.3657 C.3     1  UNL1        0.0819
     36 C         142.1069  141.9046  164.1354 C.3     1  UNL1        0.0983
     37 C         143.3792  142.3047  164.8219 C.3     1  UNL1        0.0323
     38 C         144.3400  143.4371  165.0327 C.2     1  UNL1       -0.0304
     39 C         143.8362  144.6219  164.2629 C.2     1  UNL1       -0.0294
     40 C         142.5640  144.2217  163.5764 C.3     1  UNL1        0.0404
     41 C         142.2815  142.7896  163.9219 C.3     1  UNL1        0.0109
     42 C         141.4533  140.5563  164.2063 C.2     1  UNL1        0.2208
     43 N         140.3688  140.3004  165.2104 N.am    1  UNL1       -0.3288
     44 O         141.8842  139.4639  163.2729 O.2     1  UNL1       -0.2753
     45 H         140.0860  141.0173  165.8230 H       1  UNL1        0.1449
     46 H         139.9398  139.4155  165.2569 H       1  UNL1        0.1449
@<TRIPOS>BOND
     1    31    32    1
     2    32    12    1
     3    12    13   ar
     4    13    14   ar
     5    14    18    1
     6    18    19    1
     7    19    20    1
     8    20    21    1
     9    21    24    1
    10    24    25    1
    11    25    26    1
    12    26    27    1
    13    27    28    1
    14    27    29    1
    15    29    30    1
    16    21    22    1
    17    22    23    1
    18    14    15   ar
    19    15    16   ar
    20    16    17   ar
    21    17     1    1
    22     1     2   ar
    23     2     3   ar
    24     3     4   ar
    25     4    33    1
    26    35    33    1
    27    35    36    1
    28    36    42    1
    29    42    43   am
    30    42    44    2
    31    36    37    1
    32    37    38    1
    33    38    39    2
    34    40    39    1
    35    40    41    1
    36     4     5   ar
    37     5     6    1
    38     5     7   ar
    39     7     8   ar
    40     8     9   ar
    41     9    10   ar
    42    17    12   ar
    43    10     1   ar
    44    23    18    1
    45     9     3    1
    46    30    24    1
    47    40    35    1
    48    41    37    1
    49    33    34    1
    50    43    45    1
    51    43    46    1
    52     8    11    1
@<TRIPOS>MOLECULE
*****
 46 52 0 0 0
SMALL
GASTEIGER

@<TRIPOS>ATOM
      1 C         140.0859  141.4633  155.9113 C.ar    1  UNL1        0.1669
      2 N         140.6652  142.6260  156.6613 N.ar    1  UNL1       -0.2221
      3 C         139.9005  143.8562  156.2716 C.ar    1  UNL1        0.1307
      4 C         140.0261  145.2908  156.6911 C.ar    1  UNL1        0.0777
      5 C         139.0997  146.3231  156.1196 C.ar    1  UNL1        0.0893
      6 CL        139.2253  147.7579  156.5391 Cl      1  UNL1       -0.0794
      7 C         138.0479  145.9207  155.1289 C.ar    1  UNL1        0.0863
      8 N         137.9223  144.4860  154.7095 N.ar    1  UNL1       -0.3354
      9 C         138.8486  143.4538  155.2809 C.ar    1  UNL1        0.1613
     10 N         138.9632  141.9748  155.0581 N.ar    1  UNL1       -0.2080
     11 H         137.2319  144.2219  154.0592 H       1  UNL1        0.1675
     12 C         139.8041  139.0605  156.8587 C.ar    1  UNL1        0.1428
     13 C         140.2665  137.6362  156.9464 C.ar    1  UNL1        0.0515
     14 C         141.4728  137.1903  156.1744 C.ar    1  UNL1        0.0509
     15 C         142.2169  138.1688  155.3147 C.ar    1  UNL1        0.0148
     16 C         141.7545  139.5931  155.2270 C.ar    1  UNL1        0.0074
     17 C         140.5482  140.0390  155.9990 C.ar    1  UNL1        0.0698
     18 N         141.9351  135.7660  156.2621 N.pl3   1  UNL1       -0.3073
     19 C         141.3574  134.7321  155.3417 C.3     1  UNL1        0.0922
     20 C         141.8197  133.3078  155.4294 C.3     1  UNL1        0.0374
     21 C         142.8595  132.9175  156.4375 C.3     1  UNL1        0.0610
     22 C         143.4372  133.9515  157.3579 C.3     1  UNL1        0.0374
     23 C         142.9750  135.3758  157.2702 C.3     1  UNL1        0.0922
     24 N         143.3218  131.4932  156.5252 N.3     1  UNL1       -0.2715
     25 C         142.8114  130.4774  155.5466 C.3     1  UNL1        0.0896
     26 C         143.2736  129.0531  155.6343 C.3     1  UNL1        0.0897
     27 N         144.2463  128.6446  156.7006 N.3     1  UNL1       -0.2691
     28 C         144.7085  127.2202  156.7883 C.3     1  UNL1        0.0897
     29 C         144.7567  129.6603  157.6792 C.3     1  UNL1        0.0897
     30 C         144.2944  131.0846  157.5915 C.3     1  UNL1        0.0896
     31 C         138.7367  139.9214  159.0654 C.3     1  UNL1        0.2525
     32 O         138.5978  139.5063  157.6307 O.3     1  UNL1       -0.4713
     33 N         141.0780  145.6934  157.6818 N.pl3   1  UNL1       -0.3313
     34 H         141.8915  146.1555  157.3756 H       1  UNL1        0.1469
     35 C         140.8902  145.3918  159.1391 C.3     1  UNL1        0.0819
     36 C         141.5120  144.2523  159.8909 C.3     1  UNL1        0.0983
     37 C         141.0538  144.3330  161.3169 C.3     1  UNL1        0.0323
     38 C         140.2114  145.1178  162.2784 C.2     1  UNL1       -0.0304
     39 C         139.5897  146.2572  161.5266 C.2     1  UNL1       -0.0294
     40 C         140.0478  146.1766  160.1006 C.3     1  UNL1        0.0404
     41 C         140.9527  144.9874  159.9709 C.3     1  UNL1        0.0109
     42 C         142.4306  143.2145  159.3173 C.2     1  UNL1        0.2208
     43 N         142.0931  141.7589  159.4491 N.am    1  UNL1       -0.3288
     44 O         143.6868  143.6322  158.6119 O.2     1  UNL1       -0.2753
     45 H         141.2686  141.4847  159.9120 H       1  UNL1        0.1449
     46 H         142.6960  141.0777  159.0726 H       1  UNL1        0.1449
@<TRIPOS>BOND
     1    31    32    1
     2    32    12    1
     3    12    13   ar
     4    13    14   ar
     5    14    18    1
     6    18    19    1
     7    19    20    1
     8    20    21    1
     9    21    24    1
    10    24    25    1
    11    25    26    1
    12    26    27    1
    13    27    28    1
    14    27    29    1
    15    29    30    1
    16    21    22    1
    17    22    23    1
    18    14    15   ar
    19    15    16   ar
    20    16    17   ar
    21    17     1    1
    22     1     2   ar
    23     2     3   ar
    24     3     4   ar
    25     4    33    1
    26    35    33    1
    27    35    36    1
    28    36    42    1
    29    42    43   am
    30    42    44    2
    31    36    37    1
    32    37    38    1
    33    38    39    2
    34    40    39    1
    35    40    41    1
    36     4     5   ar
    37     5     6    1
    38     5     7   ar
    39     7     8   ar
    40     8     9   ar
    41     9    10   ar
    42    17    12   ar
    43    10     1   ar
    44    23    18    1
    45     9     3    1
    46    30    24    1
    47    40    35    1
    48    41    37    1
    49    33    34    1
    50    43    45    1
    51    43    46    1
    52     8    11    1
