@<TRIPOS>MOLECULE
*****
 49 55 0 0 0
SMALL
GASTEIGER

@<TRIPOS>ATOM
      1 C         141.6200  141.8776  164.9035 C.3     1  UNL1        0.0236
      2 C         141.6039  140.9835  163.6992 C.3     1  UNL1        0.0257
      3 C         141.6437  141.5784  162.3228 C.3     1  UNL1        0.0940
      4 N         141.6996  143.0674  162.1506 N.am    1  UNL1       -0.2760
      5 C         141.7394  143.6624  160.7742 C.2     1  UNL1        0.2507
      6 O         141.7953  145.1514  160.6021 O.2     1  UNL1       -0.2698
      7 C         141.7157  143.9616  163.3549 C.3     1  UNL1        0.0940
      8 C         141.6759  143.3667  164.7313 C.3     1  UNL1        0.0257
      9 C         141.7233  142.7682  159.5700 C.ar    1  UNL1        0.0760
     10 C         140.4193  142.4001  158.9264 C.ar    1  UNL1        0.0629
     11 CL        139.1314  142.9262  159.4871 Cl      1  UNL1       -0.0821
     12 C         140.4033  141.5059  157.7222 C.ar    1  UNL1        0.0130
     13 C         141.6913  140.9798  157.1615 C.ar    1  UNL1        0.0216
     14 C         142.9953  141.3479  157.8051 C.ar    1  UNL1        0.1324
     15 C         143.0113  142.2421  159.0093 C.ar    1  UNL1        0.0814
     16 CL        144.3153  142.6101  159.6529 Cl      1  UNL1       -0.0807
     17 S         144.2832  140.8218  157.2444 S.O2    1  UNL1        0.0580
     18 N         145.5711  140.2956  156.6837 N.3     1  UNL1       -0.2034
     19 O         144.3955  142.0326  156.3662 O.2     1  UNL1       -0.1532
     20 O         144.1709  139.6108  158.1226 O.2     1  UNL1       -0.1532
     21 H         145.9351  140.9526  155.9936 H       1  UNL1        0.1442
     22 H         145.4047  139.3928  156.2390 H       1  UNL1        0.1442
     23 C         141.6163  142.3064  166.3409 C.ar    1  UNL1       -0.0204
     24 C         140.3805  142.9091  166.9405 C.ar    1  UNL1       -0.0041
     25 C         140.3767  143.3379  168.3780 C.ar    1  UNL1        0.0020
     26 C         141.6088  143.1638  169.2157 C.ar    1  UNL1        0.0296
     27 C         142.8446  142.5611  168.6161 C.ar    1  UNL1        0.1398
     28 F         144.0765  142.3871  169.4538 F       1  UNL1       -0.2042
     29 C         142.8482  142.1324  167.1786 C.ar    1  UNL1        0.0254
     30 C         141.5628  140.5375  165.5748 C.3     1  UNL1        0.0215
     31 C         140.3285  139.6929  165.4595 C.3     1  UNL1        0.0723
     32 C         140.2680  139.6583  165.3188 C.3     1  UNL1        0.0893
     33 C         139.2914  140.7724  165.5536 C.3     1  UNL1        0.0386
     34 C         138.2568  141.0939  164.5161 C.3     1  UNL1        0.0594
     35 C         137.4367  141.0594  163.2606 C.3     1  UNL1        0.0174
     36 C         137.9671  139.9586  162.3906 C.3     1  UNL1        0.0174
     37 C         139.1149  139.3127  163.1084 C.3     1  UNL1        0.0594
     38 C         140.2100  138.8658  164.0467 C.3     1  UNL1        0.0386
     39 N         139.2940  140.0143  164.4221 N.3     1  UNL1       -0.2751
     40 C         142.9286  138.5902  164.6288 C.3     1  UNL1        0.0718
     41 C         142.6754  138.7925  166.0934 C.ar    1  UNL1        0.1207
     42 N         143.3672  138.6226  167.4134 N.ar    1  UNL1       -0.2309
     43 C         142.4220  139.0619  168.4921 C.ar    1  UNL1        0.0983
     44 C         142.5584  139.1170  169.9849 C.ar    1  UNL1        0.0206
     45 C         141.4188  139.6136  170.8242 C.ar    1  UNL1        0.0016
     46 C         140.1428  140.0551  170.1709 C.ar    1  UNL1        0.0016
     47 C         140.0064  140.0000  168.6781 C.ar    1  UNL1        0.0188
     48 C         141.1460  139.5034  167.8388 C.ar    1  UNL1        0.0785
     49 N         141.3026  139.3369  166.3563 N.ar    1  UNL1       -0.3167
@<TRIPOS>BOND
     1    40    41    1
     2    41    42   ar
     3    42    43   ar
     4    43    44   ar
     5    44    45   ar
     6    45    46   ar
     7    46    47   ar
     8    47    48   ar
     9    48    49   ar
    10    49    32    1
    11    32    33    1
    12    33    34    1
    13    34    35    1
    14    35    36    1
    15    36    37    1
    16    37    38    1
    17    37    39    1
    18    39    31    1
    19    31    30    1
    20    30     1    1
    21     1    23    1
    22    23    24   ar
    23    24    25   ar
    24    25    26   ar
    25    26    27   ar
    26    27    28    1
    27    27    29   ar
    28     1     2    1
    29     2     3    1
    30     3     4    1
    31     4     5   am
    32     5     6    2
    33     5     9    1
    34     9    10   ar
    35    10    11    1
    36    10    12   ar
    37    12    13   ar
    38    13    14   ar
    39    14    17    1
    40    17    18    1
    41    17    19    2
    42    17    20    2
    43    14    15   ar
    44    15    16    1
    45     4     7    1
    46     7     8    1
    47    49    41   ar
    48    38    32    1
    49     8     1    1
    50    48    43   ar
    51    39    34    1
    52    29    23   ar
    53    15     9   ar
    54    18    21    1
    55    18    22    1
@<TRIPOS>MOLECULE
*****
 49 55 0 0 0
SMALL
GASTEIGER

@<TRIPOS>ATOM
      1 C         141.5492  141.8532  164.8997 C.3     1  UNL1        0.0236
      2 C         141.4800  140.9507  163.7036 C.3     1  UNL1        0.0257
      3 C         141.4748  141.5354  162.3222 C.3     1  UNL1        0.0940
      4 N         141.5388  143.0226  162.1370 N.am    1  UNL1       -0.2760
      5 C         141.5337  143.6072  160.7556 C.2     1  UNL1        0.2507
      6 O         141.5977  145.0944  160.5704 O.2     1  UNL1       -0.2698
      7 C         141.6081  143.9250  163.3332 C.3     1  UNL1        0.0940
      8 C         141.6132  143.3404  164.7145 C.3     1  UNL1        0.0257
      9 C         141.4645  142.7047  159.5595 C.ar    1  UNL1        0.0760
     10 C         142.7251  142.2805  158.8661 C.ar    1  UNL1        0.0629
     11 CL        144.0550  142.7587  159.3687 Cl      1  UNL1       -0.0821
     12 C         142.6557  141.3779  157.6700 C.ar    1  UNL1        0.0130
     13 C         141.3258  140.8996  157.1674 C.ar    1  UNL1        0.0216
     14 C         140.0652  141.3239  157.8608 C.ar    1  UNL1        0.1324
     15 C         140.1345  142.2264  159.0569 C.ar    1  UNL1        0.0814
     16 CL        138.8739  142.6507  159.7504 Cl      1  UNL1       -0.0807
     17 S         138.7354  140.8456  157.3582 S.O2    1  UNL1        0.0580
     18 N         137.4055  140.3674  156.8555 N.3     1  UNL1       -0.2034
     19 O         138.8324  139.6414  158.2473 O.2     1  UNL1       -0.1532
     20 O         138.6383  142.0498  156.4690 O.2     1  UNL1       -0.1532
     21 H         137.1663  139.4869  157.3115 H       1  UNL1        0.1442
     22 H         137.4544  140.2254  155.8466 H       1  UNL1        0.1442
     23 C         141.6026  142.2922  166.3331 C.ar    1  UNL1       -0.0204
     24 C         140.3870  142.8851  166.9817 C.ar    1  UNL1       -0.0041
     25 C         140.4405  143.3241  168.4151 C.ar    1  UNL1        0.0020
     26 C         141.7095  143.1701  169.1997 C.ar    1  UNL1        0.0296
     27 C         142.9252  142.5772  168.5511 C.ar    1  UNL1        0.1398
     28 F         144.1941  142.4232  169.3358 F       1  UNL1       -0.2042
     29 C         142.8716  142.1382  167.1178 C.ar    1  UNL1        0.0254
     30 C         141.5037  140.5186  165.5827 C.3     1  UNL1        0.0215
     31 C         140.2698  139.6706  165.4908 C.3     1  UNL1        0.0723
     32 C         140.2081  139.6316  165.3518 C.3     1  UNL1        0.0893
     33 C         139.2447  140.7640  165.5503 C.3     1  UNL1        0.0386
     34 C         138.2082  141.0586  164.5067 C.3     1  UNL1        0.0594
     35 C         137.3813  140.9872  163.2572 C.3     1  UNL1        0.0174
     36 C         137.8954  139.8497  162.4256 C.3     1  UNL1        0.0174
     37 C         139.0400  139.2180  163.1610 C.3     1  UNL1        0.0594
     38 C         140.1351  138.7938  164.1098 C.3     1  UNL1        0.0386
     39 N         139.2334  139.9652  164.4473 N.3     1  UNL1       -0.2751
     40 C         142.8808  138.5812  164.6816 C.3     1  UNL1        0.0718
     41 C         142.6234  138.8032  166.1425 C.ar    1  UNL1        0.1207
     42 N         143.3151  138.6608  167.4659 N.ar    1  UNL1       -0.2309
     43 C         142.3638  139.1067  168.5365 C.ar    1  UNL1        0.0983
     44 C         142.4975  139.1861  170.0284 C.ar    1  UNL1        0.0206
     45 C         141.3515  139.6834  170.8586 C.ar    1  UNL1        0.0016
     46 C         140.0719  140.1013  170.1970 C.ar    1  UNL1        0.0016
     47 C         139.9382  140.0219  168.7051 C.ar    1  UNL1        0.0188
     48 C         141.0842  139.5246  167.8749 C.ar    1  UNL1        0.0785
     49 N         141.2446  139.3370  166.3953 N.ar    1  UNL1       -0.3167
@<TRIPOS>BOND
     1    40    41    1
     2    41    42   ar
     3    42    43   ar
     4    43    44   ar
     5    44    45   ar
     6    45    46   ar
     7    46    47   ar
     8    47    48   ar
     9    48    49   ar
    10    49    32    1
    11    32    33    1
    12    33    34    1
    13    34    35    1
    14    35    36    1
    15    36    37    1
    16    37    38    1
    17    37    39    1
    18    39    31    1
    19    31    30    1
    20    30     1    1
    21     1    23    1
    22    23    24   ar
    23    24    25   ar
    24    25    26   ar
    25    26    27   ar
    26    27    28    1
    27    27    29   ar
    28     1     2    1
    29     2     3    1
    30     3     4    1
    31     4     5   am
    32     5     6    2
    33     5     9    1
    34     9    10   ar
    35    10    11    1
    36    10    12   ar
    37    12    13   ar
    38    13    14   ar
    39    14    17    1
    40    17    18    1
    41    17    19    2
    42    17    20    2
    43    14    15   ar
    44    15    16    1
    45     4     7    1
    46     7     8    1
    47    49    41   ar
    48    38    32    1
    49     8     1    1
    50    48    43   ar
    51    39    34    1
    52    29    23   ar
    53    15     9   ar
    54    18    21    1
    55    18    22    1
@<TRIPOS>MOLECULE
*****
 49 55 0 0 0
SMALL
GASTEIGER

@<TRIPOS>ATOM
      1 C         141.2277  141.5927  161.6520 C.3     1  UNL1        0.0236
      2 C         141.0956  142.1671  163.0314 C.3     1  UNL1        0.0257
      3 C         140.8969  141.2569  164.2070 C.3     1  UNL1        0.0940
      4 N         140.8303  139.7723  164.0033 N.am    1  UNL1       -0.2760
      5 C         140.6315  138.8621  165.1789 C.2     1  UNL1        0.2507
      6 O         140.5649  137.3775  164.9752 O.2     1  UNL1       -0.2698
      7 C         140.9624  139.1979  162.6239 C.3     1  UNL1        0.0940
      8 C         141.1612  140.1080  161.4484 C.3     1  UNL1        0.0257
      9 C         140.4994  139.4366  166.5582 C.ar    1  UNL1        0.0760
     10 C         139.1455  139.5636  167.1913 C.ar    1  UNL1        0.0629
     11 CL        137.9236  139.1162  166.4450 Cl      1  UNL1       -0.0821
     12 C         139.0134  140.1381  168.5706 C.ar    1  UNL1        0.0130
     13 C         140.2353  140.5856  169.3169 C.ar    1  UNL1        0.0216
     14 C         141.5892  140.4585  168.6838 C.ar    1  UNL1        0.1324
     15 C         141.7212  139.8840  167.3045 C.ar    1  UNL1        0.0814
     16 CL        143.0752  139.7570  166.6714 Cl      1  UNL1       -0.0807
     17 S         142.8110  140.9060  169.4300 S.O2    1  UNL1        0.0580
     18 N         144.0328  141.3535  170.1763 N.3     1  UNL1       -0.2034
     19 O         142.9744  139.5244  169.9909 O.2     1  UNL1       -0.1532
     20 O         142.6476  142.2876  168.8692 O.2     1  UNL1       -0.1532
     21 H         144.4145  140.5692  170.7050 H       1  UNL1        0.1442
     22 H         143.7828  142.1063  170.8175 H       1  UNL1        0.1442
     23 C         141.4043  141.5257  160.1639 C.ar    1  UNL1       -0.0204
     24 C         142.6848  141.0029  159.5834 C.ar    1  UNL1       -0.0041
     25 C         142.8613  140.9360  158.0953 C.ar    1  UNL1        0.0020
     26 C         141.7574  141.3919  157.1878 C.ar    1  UNL1        0.0296
     27 C         140.4769  141.9147  157.7684 C.ar    1  UNL1        0.1398
     28 F         139.3730  142.3705  156.8609 F       1  UNL1       -0.2042
     29 C         140.3004  141.9816  159.2565 C.ar    1  UNL1        0.0254
     30 C         141.3556  143.0540  161.3390 C.3     1  UNL1        0.0215
     31 C         142.5752  143.8106  161.7753 C.3     1  UNL1        0.0723
     32 C         142.6401  143.7851  161.9159 C.3     1  UNL1        0.0893
     33 C         143.6236  142.8976  161.2122 C.3     1  UNL1        0.0386
     34 C         144.6985  142.2016  161.9935 C.3     1  UNL1        0.0594
     35 C         145.5616  141.7322  163.1269 C.3     1  UNL1        0.0174
     36 C         145.0465  142.3551  164.3905 C.3     1  UNL1        0.0174
     37 C         143.8651  143.2096  164.0380 C.3     1  UNL1        0.0594
     38 C         142.7315  143.9765  163.4008 C.3     1  UNL1        0.0386
     39 N         143.6500  143.1147  162.5565 N.3     1  UNL1       -0.2751
     40 C         140.1302  144.7164  163.1523 C.3     1  UNL1        0.0718
     41 C         140.2632  144.9854  161.6826 C.ar    1  UNL1        0.1207
     42 N         139.4970  145.6109  160.5549 N.ar    1  UNL1       -0.2309
     43 C         140.3256  145.4931  159.3100 C.ar    1  UNL1        0.0983
     44 C         140.0812  145.9315  157.8965 C.ar    1  UNL1        0.0206
     45 C         141.1151  145.6716  156.8414 C.ar    1  UNL1        0.0016
     46 C         142.3934  144.9733  157.1997 C.ar    1  UNL1        0.0016
     47 C         142.6378  144.5349  158.6132 C.ar    1  UNL1        0.0188
     48 C         141.6038  144.7948  159.6684 C.ar    1  UNL1        0.0785
     49 N         141.5653  144.4810  161.1347 N.ar    1  UNL1       -0.3167
@<TRIPOS>BOND
     1    40    41    1
     2    41    42   ar
     3    42    43   ar
     4    43    44   ar
     5    44    45   ar
     6    45    46   ar
     7    46    47   ar
     8    47    48   ar
     9    48    49   ar
    10    49    32    1
    11    32    33    1
    12    33    34    1
    13    34    35    1
    14    35    36    1
    15    36    37    1
    16    37    38    1
    17    37    39    1
    18    39    31    1
    19    31    30    1
    20    30     1    1
    21     1    23    1
    22    23    24   ar
    23    24    25   ar
    24    25    26   ar
    25    26    27   ar
    26    27    28    1
    27    27    29   ar
    28     1     2    1
    29     2     3    1
    30     3     4    1
    31     4     5   am
    32     5     6    2
    33     5     9    1
    34     9    10   ar
    35    10    11    1
    36    10    12   ar
    37    12    13   ar
    38    13    14   ar
    39    14    17    1
    40    17    18    1
    41    17    19    2
    42    17    20    2
    43    14    15   ar
    44    15    16    1
    45     4     7    1
    46     7     8    1
    47    49    41   ar
    48    38    32    1
    49     8     1    1
    50    48    43   ar
    51    39    34    1
    52    29    23   ar
    53    15     9   ar
    54    18    21    1
    55    18    22    1
@<TRIPOS>MOLECULE
*****
 49 55 0 0 0
SMALL
GASTEIGER

@<TRIPOS>ATOM
      1 C         140.4994  141.3126  165.0499 C.3     1  UNL1        0.0236
      2 C         141.3989  141.4587  163.8585 C.3     1  UNL1        0.0257
      3 C         140.8097  141.6664  162.4947 C.3     1  UNL1        0.0940
      4 N         139.3209  141.7280  162.3224 N.am    1  UNL1       -0.2760
      5 C         138.7317  141.9357  160.9587 C.2     1  UNL1        0.2507
      6 O         137.2429  141.9973  160.7864 O.2     1  UNL1       -0.2698
      7 C         138.4214  141.5819  163.5138 C.3     1  UNL1        0.0940
      8 C         139.0105  141.3742  164.8775 C.3     1  UNL1        0.0257
      9 C         139.6313  142.0819  159.7674 C.ar    1  UNL1        0.0760
     10 C         139.8951  140.9034  158.8776 C.ar    1  UNL1        0.0629
     11 CL        139.2592  139.5787  159.1792 Cl      1  UNL1       -0.0821
     12 C         140.7948  141.0496  157.6863 C.ar    1  UNL1        0.0130
     13 C         141.4306  142.3743  157.3847 C.ar    1  UNL1        0.0216
     14 C         141.1669  143.5528  158.2745 C.ar    1  UNL1        0.1324
     15 C         140.2672  143.4065  159.4658 C.ar    1  UNL1        0.0814
     16 CL        140.0034  144.5850  160.3556 Cl      1  UNL1       -0.0807
     17 S         141.8027  144.8774  157.9729 S.O2    1  UNL1        0.0580
     18 N         142.4386  146.2020  157.6713 N.3     1  UNL1       -0.2034
     19 O         143.0310  144.4591  158.7254 O.2     1  UNL1       -0.1532
     20 O         140.5744  145.2957  157.2203 O.2     1  UNL1       -0.1532
     21 H         143.3702  146.2341  158.0854 H       1  UNL1        0.1442
     22 H         141.8667  146.9506  158.0624 H       1  UNL1        0.1442
     23 C         140.0643  141.1221  166.4727 C.ar    1  UNL1       -0.0204
     24 C         139.3939  139.8460  166.8875 C.ar    1  UNL1       -0.0041
     25 C         138.9588  139.6555  168.3104 C.ar    1  UNL1        0.0020
     26 C         139.1943  140.7412  169.3184 C.ar    1  UNL1        0.0296
     27 C         139.8647  142.0173  168.9035 C.ar    1  UNL1        0.1398
     28 F         140.1001  143.1028  169.9115 F       1  UNL1       -0.2042
     29 C         140.2998  142.2076  167.4806 C.ar    1  UNL1        0.0254
     30 C         141.8370  141.1848  165.7163 C.3     1  UNL1        0.0215
     31 C         142.6886  139.9761  165.4634 C.3     1  UNL1        0.0723
     32 C         142.7204  139.9316  165.3163 C.3     1  UNL1        0.0893
     33 C         141.6332  138.9103  165.4758 C.3     1  UNL1        0.0386
     34 C         141.3028  137.9836  164.3436 C.3     1  UNL1        0.0594
     35 C         141.3175  137.3012  163.0079 C.3     1  UNL1        0.0174
     36 C         142.3821  137.9452  162.1700 C.3     1  UNL1        0.0174
     37 C         143.0253  139.0257  162.9879 C.3     1  UNL1        0.0594
     38 C         143.4770  140.0259  164.0247 C.3     1  UNL1        0.0386
     39 N         142.3583  139.0494  164.3313 N.3     1  UNL1       -0.2751
     40 C         143.7142  142.6740  164.8837 C.3     1  UNL1        0.0718
     41 C         143.5595  142.2634  166.3181 C.ar    1  UNL1        0.1207
     42 N         143.7536  142.8161  167.6989 N.ar    1  UNL1       -0.2309
     43 C         143.3647  141.7527  168.6828 C.ar    1  UNL1        0.0983
     44 C         143.3501  141.7299  170.1825 C.ar    1  UNL1        0.0206
     45 C         142.9011  140.4971  170.9095 C.ar    1  UNL1        0.0016
     46 C         142.4667  139.2871  170.1367 C.ar    1  UNL1        0.0016
     47 C         142.4813  139.3099  168.6370 C.ar    1  UNL1        0.0188
     48 C         142.9304  140.5427  167.9100 C.ar    1  UNL1        0.0785
     49 N         143.0508  140.8583  166.4485 N.ar    1  UNL1       -0.3167
@<TRIPOS>BOND
     1    40    41    1
     2    41    42   ar
     3    42    43   ar
     4    43    44   ar
     5    44    45   ar
     6    45    46   ar
     7    46    47   ar
     8    47    48   ar
     9    48    49   ar
    10    49    32    1
    11    32    33    1
    12    33    34    1
    13    34    35    1
    14    35    36    1
    15    36    37    1
    16    37    38    1
    17    37    39    1
    18    39    31    1
    19    31    30    1
    20    30     1    1
    21     1    23    1
    22    23    24   ar
    23    24    25   ar
    24    25    26   ar
    25    26    27   ar
    26    27    28    1
    27    27    29   ar
    28     1     2    1
    29     2     3    1
    30     3     4    1
    31     4     5   am
    32     5     6    2
    33     5     9    1
    34     9    10   ar
    35    10    11    1
    36    10    12   ar
    37    12    13   ar
    38    13    14   ar
    39    14    17    1
    40    17    18    1
    41    17    19    2
    42    17    20    2
    43    14    15   ar
    44    15    16    1
    45     4     7    1
    46     7     8    1
    47    49    41   ar
    48    38    32    1
    49     8     1    1
    50    48    43   ar
    51    39    34    1
    52    29    23   ar
    53    15     9   ar
    54    18    21    1
    55    18    22    1
@<TRIPOS>MOLECULE
*****
 49 55 0 0 0
SMALL
GASTEIGER

@<TRIPOS>ATOM
      1 C         140.5901  141.7030  165.1779 C.3     1  UNL1        0.0236
      2 C         141.5576  142.0910  164.0993 C.3     1  UNL1        0.0257
      3 C         141.0487  142.5509  162.7653 C.3     1  UNL1        0.0940
      4 N         139.5724  142.6228  162.5099 N.am    1  UNL1       -0.2760
      5 C         139.0636  143.0826  161.1758 C.2     1  UNL1        0.2507
      6 O         137.5872  143.1545  160.9204 O.2     1  UNL1       -0.2698
      7 C         138.6049  142.2348  163.5885 C.3     1  UNL1        0.0940
      8 C         139.1137  141.7750  164.9225 C.3     1  UNL1        0.0257
      9 C         140.0311  143.4706  160.0973 C.ar    1  UNL1        0.0760
     10 C         140.4810  144.8959  159.9704 C.ar    1  UNL1        0.0629
     11 CL        139.9633  145.9333  160.9221 Cl      1  UNL1       -0.0821
     12 C         141.4486  145.2837  158.8918 C.ar    1  UNL1        0.0130
     13 C         141.9663  144.2463  157.9401 C.ar    1  UNL1        0.0216
     14 C         141.5164  142.8210  158.0670 C.ar    1  UNL1        0.1324
     15 C         140.5488  142.4331  159.1456 C.ar    1  UNL1        0.0814
     16 CL        140.0990  141.0078  159.2725 Cl      1  UNL1       -0.0807
     17 S         142.0341  141.7836  157.1153 S.O2    1  UNL1        0.0580
     18 N         142.5518  140.7462  156.1636 N.3     1  UNL1       -0.2034
     19 O         143.1803  141.5054  158.0420 O.2     1  UNL1       -0.1532
     20 O         140.8879  142.0617  156.1885 O.2     1  UNL1       -0.1532
     21 H         143.4040  140.3327  156.5420 H       1  UNL1        0.1442
     22 H         142.7556  141.1816  155.2639 H       1  UNL1        0.1442
     23 C         140.0728  141.2334  166.5054 C.ar    1  UNL1       -0.0204
     24 C         139.3779  139.9086  166.6134 C.ar    1  UNL1       -0.0041
     25 C         138.8607  139.4390  167.9409 C.ar    1  UNL1        0.0020
     26 C         139.0384  140.2944  169.1602 C.ar    1  UNL1        0.0296
     27 C         139.7334  141.6194  169.0521 C.ar    1  UNL1        0.1398
     28 F         139.9110  142.4746  170.2714 F       1  UNL1       -0.2042
     29 C         140.2505  142.0888  167.7246 C.ar    1  UNL1        0.0254
     30 C         141.8867  141.4680  165.8943 C.3     1  UNL1        0.0215
     31 C         142.7801  140.3376  165.4770 C.3     1  UNL1        0.0723
     32 C         142.8157  140.3159  165.3257 C.3     1  UNL1        0.0893
     33 C         141.7492  139.2610  165.3089 C.3     1  UNL1        0.0386
     34 C         141.4619  138.5050  164.0456 C.3     1  UNL1        0.0594
     35 C         141.5178  138.0275  162.6247 C.3     1  UNL1        0.0174
     36 C         142.5833  138.8090  161.9147 C.3     1  UNL1        0.0174
     37 C         143.1858  139.7695  162.8967 C.3     1  UNL1        0.0594
     38 C         143.5946  140.6146  164.0791 C.3     1  UNL1        0.0386
     39 N         142.4928  139.5817  164.2138 N.3     1  UNL1       -0.2751
     40 C         143.8098  143.0920  165.3222 C.3     1  UNL1        0.0718
     41 C         143.6089  142.4812  166.6774 C.ar    1  UNL1        0.1207
     42 N         143.7534  142.8315  168.1287 N.ar    1  UNL1       -0.2309
     43 C         143.3369  141.6387  168.9372 C.ar    1  UNL1        0.0983
     44 C         143.2717  141.4024  170.4170 C.ar    1  UNL1        0.0206
     45 C         142.8045  140.0785  170.9452 C.ar    1  UNL1        0.0016
     46 C         142.4026  138.9909  169.9936 C.ar    1  UNL1        0.0016
     47 C         142.4677  139.2273  168.5138 C.ar    1  UNL1        0.0188
     48 C         142.9349  140.5512  167.9856 C.ar    1  UNL1        0.0785
     49 N         143.1030  141.0718  166.5890 N.ar    1  UNL1       -0.3167
@<TRIPOS>BOND
     1    40    41    1
     2    41    42   ar
     3    42    43   ar
     4    43    44   ar
     5    44    45   ar
     6    45    46   ar
     7    46    47   ar
     8    47    48   ar
     9    48    49   ar
    10    49    32    1
    11    32    33    1
    12    33    34    1
    13    34    35    1
    14    35    36    1
    15    36    37    1
    16    37    38    1
    17    37    39    1
    18    39    31    1
    19    31    30    1
    20    30     1    1
    21     1    23    1
    22    23    24   ar
    23    24    25   ar
    24    25    26   ar
    25    26    27   ar
    26    27    28    1
    27    27    29   ar
    28     1     2    1
    29     2     3    1
    30     3     4    1
    31     4     5   am
    32     5     6    2
    33     5     9    1
    34     9    10   ar
    35    10    11    1
    36    10    12   ar
    37    12    13   ar
    38    13    14   ar
    39    14    17    1
    40    17    18    1
    41    17    19    2
    42    17    20    2
    43    14    15   ar
    44    15    16    1
    45     4     7    1
    46     7     8    1
    47    49    41   ar
    48    38    32    1
    49     8     1    1
    50    48    43   ar
    51    39    34    1
    52    29    23   ar
    53    15     9   ar
    54    18    21    1
    55    18    22    1
@<TRIPOS>MOLECULE
*****
 49 55 0 0 0
SMALL
GASTEIGER

@<TRIPOS>ATOM
      1 C         140.8069  141.8333  161.6596 C.3     1  UNL1        0.0236
      2 C         141.2402  142.2541  163.0327 C.3     1  UNL1        0.0257
      3 C         141.2390  141.2609  164.1568 C.3     1  UNL1        0.0940
      4 N         140.8045  139.8469  163.9079 N.am    1  UNL1       -0.2760
      5 C         140.8033  138.8538  165.0320 C.2     1  UNL1        0.2507
      6 O         140.3688  137.4398  164.7831 O.2     1  UNL1       -0.2698
      7 C         140.3712  139.4262  162.5349 C.3     1  UNL1        0.0940
      8 C         140.3724  140.4193  161.4108 C.3     1  UNL1        0.0257
      9 C         141.2366  139.2746  166.4050 C.ar    1  UNL1        0.0760
     10 C         142.6561  139.0634  166.8412 C.ar    1  UNL1        0.0629
     11 CL        143.6424  138.4312  165.9044 Cl      1  UNL1       -0.0821
     12 C         143.0893  139.4843  168.2142 C.ar    1  UNL1        0.0130
     13 C         142.1030  140.1164  169.1510 C.ar    1  UNL1        0.0216
     14 C         140.6835  140.3277  168.7148 C.ar    1  UNL1        0.1324
     15 C         140.2503  139.9068  167.3418 C.ar    1  UNL1        0.0814
     16 CL        138.8307  140.1181  166.9056 Cl      1  UNL1       -0.0807
     17 S         139.6972  140.9598  169.6516 S.O2    1  UNL1        0.0580
     18 N         138.7109  141.5919  170.5884 N.3     1  UNL1       -0.2034
     19 O         140.0671  142.3153  169.1264 O.2     1  UNL1       -0.1532
     20 O         139.3273  139.6043  170.1769 O.2     1  UNL1       -0.1532
     21 H         138.7245  142.6042  170.4641 H       1  UNL1        0.1442
     22 H         138.9617  141.3642  171.5505 H       1  UNL1        0.1442
     23 C         140.4857  141.9131  160.1965 C.ar    1  UNL1       -0.0204
     24 C         139.2231  142.5828  159.7413 C.ar    1  UNL1       -0.0041
     25 C         138.9020  142.6626  158.2782 C.ar    1  UNL1        0.0020
     26 C         139.8436  142.0728  157.2705 C.ar    1  UNL1        0.0296
     27 C         141.1062  141.4031  157.7258 C.ar    1  UNL1        0.1398
     28 F         142.0477  140.8133  156.7180 F       1  UNL1       -0.2042
     29 C         141.4273  141.3233  159.1889 C.ar    1  UNL1        0.0254
     30 C         141.1298  143.2749  161.4004 C.3     1  UNL1        0.0215
     31 C         142.5438  143.7606  161.5231 C.3     1  UNL1        0.0723
     32 C         142.6286  143.7368  161.6531 C.3     1  UNL1        0.0893
     33 C         143.2202  142.5490  160.9536 C.3     1  UNL1        0.0386
     34 C         144.2461  141.7036  161.6485 C.3     1  UNL1        0.0594
     35 C         145.1937  141.1726  162.6830 C.3     1  UNL1        0.0174
     36 C         145.1028  142.0560  163.8918 C.3     1  UNL1        0.0174
     37 C         144.0991  143.1330  163.6045 C.3     1  UNL1        0.0594
     38 C         143.0629  144.0791  163.0473 C.3     1  UNL1        0.0386
     39 N         143.5696  142.9153  162.2180 N.3     1  UNL1       -0.2751
     40 C         140.3991  145.0269  163.0886 C.3     1  UNL1        0.0718
     41 C         140.4411  145.2724  161.6095 C.ar    1  UNL1        0.1207
     42 N         139.6789  146.0026  160.5437 N.ar    1  UNL1       -0.2309
     43 C         140.3694  145.7637  159.2337 C.ar    1  UNL1        0.0983
     44 C         140.0692  146.2322  157.8408 C.ar    1  UNL1        0.0206
     45 C         140.9579  145.8227  156.7039 C.ar    1  UNL1        0.0016
     46 C         142.1470  144.9449  156.9601 C.ar    1  UNL1        0.0016
     47 C         142.4472  144.4765  158.3530 C.ar    1  UNL1        0.0188
     48 C         141.5585  144.8859  159.4899 C.ar    1  UNL1        0.0785
     49 N         141.6027  144.5823  160.9581 N.ar    1  UNL1       -0.3167
@<TRIPOS>BOND
     1    40    41    1
     2    41    42   ar
     3    42    43   ar
     4    43    44   ar
     5    44    45   ar
     6    45    46   ar
     7    46    47   ar
     8    47    48   ar
     9    48    49   ar
    10    49    32    1
    11    32    33    1
    12    33    34    1
    13    34    35    1
    14    35    36    1
    15    36    37    1
    16    37    38    1
    17    37    39    1
    18    39    31    1
    19    31    30    1
    20    30     1    1
    21     1    23    1
    22    23    24   ar
    23    24    25   ar
    24    25    26   ar
    25    26    27   ar
    26    27    28    1
    27    27    29   ar
    28     1     2    1
    29     2     3    1
    30     3     4    1
    31     4     5   am
    32     5     6    2
    33     5     9    1
    34     9    10   ar
    35    10    11    1
    36    10    12   ar
    37    12    13   ar
    38    13    14   ar
    39    14    17    1
    40    17    18    1
    41    17    19    2
    42    17    20    2
    43    14    15   ar
    44    15    16    1
    45     4     7    1
    46     7     8    1
    47    49    41   ar
    48    38    32    1
    49     8     1    1
    50    48    43   ar
    51    39    34    1
    52    29    23   ar
    53    15     9   ar
    54    18    21    1
    55    18    22    1
@<TRIPOS>MOLECULE
*****
 49 55 0 0 0
SMALL
GASTEIGER

@<TRIPOS>ATOM
      1 C         139.9117  140.0173  162.3439 C.3     1  UNL1        0.0236
      2 C         140.5781  141.1269  161.5857 C.3     1  UNL1        0.0257
      3 C         140.3613  141.2609  160.1075 C.3     1  UNL1        0.0940
      4 N         139.4781  140.2854  159.3875 N.am    1  UNL1       -0.2760
      5 C         139.2613  140.4194  157.9093 C.2     1  UNL1        0.2507
      6 O         138.3781  139.4439  157.1893 O.2     1  UNL1       -0.2698
      7 C         138.8117  139.1758  160.1457 C.3     1  UNL1        0.0940
      8 C         139.0285  139.0418  161.6239 C.3     1  UNL1        0.0257
      9 C         139.9277  141.5289  157.1511 C.ar    1  UNL1        0.0760
     10 C         141.3646  141.3993  156.7405 C.ar    1  UNL1        0.0629
     11 CL        142.1351  140.1601  157.0880 Cl      1  UNL1       -0.0821
     12 C         142.0310  142.5089  155.9824 C.ar    1  UNL1        0.0130
     13 C         141.2604  143.7481  155.6348 C.ar    1  UNL1        0.0216
     14 C         139.8236  143.8777  156.0454 C.ar    1  UNL1        0.1324
     15 C         139.1572  142.7681  156.8036 C.ar    1  UNL1        0.0814
     16 CL        137.7204  142.8977  157.2142 Cl      1  UNL1       -0.0807
     17 S         139.0531  145.1168  155.6979 S.O2    1  UNL1        0.0580
     18 N         138.2826  146.3560  155.3503 N.3     1  UNL1       -0.2034
     19 O         139.5979  145.7978  156.9184 O.2     1  UNL1       -0.1532
     20 O         138.5083  144.4358  154.4774 O.2     1  UNL1       -0.1532
     21 H         138.4572  147.0735  156.0540 H       1  UNL1        0.1442
     22 H         137.2860  146.1406  155.3244 H       1  UNL1        0.1442
     23 C         139.5027  139.1408  163.4905 C.ar    1  UNL1       -0.0204
     24 C         139.9776  137.7195  163.5545 C.ar    1  UNL1       -0.0041
     25 C         139.5685  136.8430  164.7011 C.ar    1  UNL1        0.0020
     26 C         138.6846  137.3880  165.7835 C.ar    1  UNL1        0.0296
     27 C         138.2097  138.8094  165.7194 C.ar    1  UNL1        0.1398
     28 F         137.3258  139.3543  166.8018 F       1  UNL1       -0.2042
     29 C         138.6188  139.6858  164.5728 C.ar    1  UNL1        0.0254
     30 C         140.6528  140.6884  163.4620 C.3     1  UNL1        0.0215
     31 C         142.1435  140.5530  163.5615 C.3     1  UNL1        0.0723
     32 C         142.2312  140.5715  163.4326 C.3     1  UNL1        0.0893
     33 C         142.3071  139.0749  163.3656 C.3     1  UNL1        0.0386
     34 C         143.0754  138.4116  162.2611 C.3     1  UNL1        0.0594
     35 C         143.9160  138.1965  161.0375 C.3     1  UNL1        0.0174
     36 C         144.2718  139.5417  160.4773 C.3     1  UNL1        0.0174
     37 C         143.6512  140.5882  161.3545 C.3     1  UNL1        0.0594
     38 C         142.9235  141.4047  162.3952 C.3     1  UNL1        0.0386
     39 N         142.9117  139.8898  162.4571 N.3     1  UNL1       -0.2751
     40 C         142.0619  139.4389  166.1500 C.3     1  UNL1        0.0718
     41 C         141.3255  140.7291  165.9426 C.ar    1  UNL1        0.1207
     42 N         140.4748  141.7020  166.7041 N.ar    1  UNL1       -0.2309
     43 C         140.0866  142.8089  165.7693 C.ar    1  UNL1        0.0983
     44 C         139.2558  144.0425  165.9646 C.ar    1  UNL1        0.0206
     45 C         139.0358  144.9873  164.8205 C.ar    1  UNL1        0.0016
     46 C         139.6465  144.6986  163.4812 C.ar    1  UNL1        0.0016
     47 C         140.4772  143.4650  163.2860 C.ar    1  UNL1        0.0188
     48 C         140.6972  142.5202  164.4300 C.ar    1  UNL1        0.0785
     49 N         141.4629  141.2348  164.5371 N.ar    1  UNL1       -0.3167
@<TRIPOS>BOND
     1    40    41    1
     2    41    42   ar
     3    42    43   ar
     4    43    44   ar
     5    44    45   ar
     6    45    46   ar
     7    46    47   ar
     8    47    48   ar
     9    48    49   ar
    10    49    32    1
    11    32    33    1
    12    33    34    1
    13    34    35    1
    14    35    36    1
    15    36    37    1
    16    37    38    1
    17    37    39    1
    18    39    31    1
    19    31    30    1
    20    30     1    1
    21     1    23    1
    22    23    24   ar
    23    24    25   ar
    24    25    26   ar
    25    26    27   ar
    26    27    28    1
    27    27    29   ar
    28     1     2    1
    29     2     3    1
    30     3     4    1
    31     4     5   am
    32     5     6    2
    33     5     9    1
    34     9    10   ar
    35    10    11    1
    36    10    12   ar
    37    12    13   ar
    38    13    14   ar
    39    14    17    1
    40    17    18    1
    41    17    19    2
    42    17    20    2
    43    14    15   ar
    44    15    16    1
    45     4     7    1
    46     7     8    1
    47    49    41   ar
    48    38    32    1
    49     8     1    1
    50    48    43   ar
    51    39    34    1
    52    29    23   ar
    53    15     9   ar
    54    18    21    1
    55    18    22    1
@<TRIPOS>MOLECULE
*****
 49 55 0 0 0
SMALL
GASTEIGER

@<TRIPOS>ATOM
      1 C         140.1763  141.9111  160.8815 C.3     1  UNL1        0.0236
      2 C         141.3180  141.7126  159.9291 C.3     1  UNL1        0.0257
      3 C         141.0817  141.0553  158.6016 C.3     1  UNL1        0.0940
      4 N         139.7037  140.5966  158.2266 N.am    1  UNL1       -0.2760
      5 C         139.4674  139.9393  156.8991 C.2     1  UNL1        0.2507
      6 O         138.0894  139.4806  156.5240 O.2     1  UNL1       -0.2698
      7 C         138.5620  140.7951  159.1790 C.3     1  UNL1        0.0940
      8 C         138.7982  141.4524  160.5064 C.3     1  UNL1        0.0257
      9 C         140.6092  139.7408  155.9467 C.ar    1  UNL1        0.0760
     10 C         140.8820  140.7595  154.8800 C.ar    1  UNL1        0.0629
     11 CL        140.0130  141.9768  154.7657 Cl      1  UNL1       -0.0821
     12 C         142.0238  140.5609  153.9277 C.ar    1  UNL1        0.0130
     13 C         142.8928  139.3436  154.0421 C.ar    1  UNL1        0.0216
     14 C         142.6200  138.3249  155.1088 C.ar    1  UNL1        0.1324
     15 C         141.4782  138.5235  156.0611 C.ar    1  UNL1        0.0814
     16 CL        141.2054  137.5048  157.1278 Cl      1  UNL1       -0.0807
     17 S         143.4890  137.1077  155.2231 S.O2    1  UNL1        0.0580
     18 N         144.3580  135.8905  155.3375 N.3     1  UNL1       -0.2034
     19 O         142.5431  136.3494  154.3398 O.2     1  UNL1       -0.1532
     20 O         144.4350  137.8660  156.1065 O.2     1  UNL1       -0.1532
     21 H         143.9486  135.1284  154.7972 H       1  UNL1        0.1442
     22 H         144.4282  135.6136  156.3167 H       1  UNL1        0.1442
     23 C         139.4221  142.3181  162.1127 C.ar    1  UNL1       -0.0204
     24 C         138.4638  143.4707  162.0585 C.ar    1  UNL1       -0.0041
     25 C         137.7096  143.8776  163.2897 C.ar    1  UNL1        0.0020
     26 C         137.9139  143.1318  164.5750 C.ar    1  UNL1        0.0296
     27 C         138.8722  141.9791  164.6292 C.ar    1  UNL1        0.1398
     28 F         139.0763  141.2333  165.9144 F       1  UNL1       -0.2042
     29 C         139.6263  141.5723  163.3979 C.ar    1  UNL1        0.0254
     30 C         141.2923  142.5112  161.6841 C.3     1  UNL1        0.0215
     31 C         141.9102  143.8093  161.2562 C.3     1  UNL1        0.0723
     32 C         141.9483  143.8284  161.1051 C.3     1  UNL1        0.0893
     33 C         140.6986  144.6481  160.9759 C.3     1  UNL1        0.0386
     34 C         140.3320  145.2533  159.6533 C.3     1  UNL1        0.0594
     35 C         140.3638  145.6443  158.2055 C.3     1  UNL1        0.0174
     36 C         141.5951  145.0472  157.5910 C.3     1  UNL1        0.0174
     37 C         142.3242  144.2872  158.6590 C.3     1  UNL1        0.0594
     38 C         142.8311  143.6139  159.9116 C.3     1  UNL1        0.0386
     39 N         141.5436  144.4145  159.9336 N.3     1  UNL1       -0.2751
     40 C         141.2676  145.1021  163.6761 C.3     1  UNL1        0.0718
     41 C         142.0087  143.8019  163.7773 C.ar    1  UNL1        0.1207
     42 N         142.5566  142.8694  164.8166 N.ar    1  UNL1       -0.2309
     43 C         143.2015  141.7144  164.1094 C.ar    1  UNL1        0.0983
     44 C         143.9054  140.4918  164.6191 C.ar    1  UNL1        0.0206
     45 C         144.4599  139.4879  163.6523 C.ar    1  UNL1        0.0016
     46 C         144.3104  139.7066  162.1759 C.ar    1  UNL1        0.0016
     47 C         143.6065  140.9292  161.6662 C.ar    1  UNL1        0.0188
     48 C         143.0520  141.9331  162.6330 C.ar    1  UNL1        0.0785
     49 N         142.3149  143.2232  162.4277 N.ar    1  UNL1       -0.3167
@<TRIPOS>BOND
     1    40    41    1
     2    41    42   ar
     3    42    43   ar
     4    43    44   ar
     5    44    45   ar
     6    45    46   ar
     7    46    47   ar
     8    47    48   ar
     9    48    49   ar
    10    49    32    1
    11    32    33    1
    12    33    34    1
    13    34    35    1
    14    35    36    1
    15    36    37    1
    16    37    38    1
    17    37    39    1
    18    39    31    1
    19    31    30    1
    20    30     1    1
    21     1    23    1
    22    23    24   ar
    23    24    25   ar
    24    25    26   ar
    25    26    27   ar
    26    27    28    1
    27    27    29   ar
    28     1     2    1
    29     2     3    1
    30     3     4    1
    31     4     5   am
    32     5     6    2
    33     5     9    1
    34     9    10   ar
    35    10    11    1
    36    10    12   ar
    37    12    13   ar
    38    13    14   ar
    39    14    17    1
    40    17    18    1
    41    17    19    2
    42    17    20    2
    43    14    15   ar
    44    15    16    1
    45     4     7    1
    46     7     8    1
    47    49    41   ar
    48    38    32    1
    49     8     1    1
    50    48    43   ar
    51    39    34    1
    52    29    23   ar
    53    15     9   ar
    54    18    21    1
    55    18    22    1
@<TRIPOS>MOLECULE
*****
 49 55 0 0 0
SMALL
GASTEIGER

@<TRIPOS>ATOM
      1 C         140.8590  142.0022  160.9509 C.3     1  UNL1        0.0236
      2 C         140.5088  141.0386  162.0458 C.3     1  UNL1        0.0257
      3 C         141.2665  141.0662  163.3400 C.3     1  UNL1        0.0940
      4 N         142.3744  142.0575  163.5395 N.am    1  UNL1       -0.2760
      5 C         143.1321  142.0852  164.8337 C.2     1  UNL1        0.2507
      6 O         144.2401  143.0765  165.0332 O.2     1  UNL1       -0.2698
      7 C         142.7246  143.0212  162.4446 C.3     1  UNL1        0.0940
      8 C         141.9670  142.9936  161.1504 C.3     1  UNL1        0.0257
      9 C         142.7818  141.1215  165.9285 C.ar    1  UNL1        0.0760
     10 C         143.4545  139.7823  165.9926 C.ar    1  UNL1        0.0629
     11 CL        144.4775  139.4067  164.9619 Cl      1  UNL1       -0.0821
     12 C         143.1041  138.8187  167.0875 C.ar    1  UNL1        0.0130
     13 C         142.0811  139.1942  168.1182 C.ar    1  UNL1        0.0216
     14 C         141.4085  140.5334  168.0541 C.ar    1  UNL1        0.1324
     15 C         141.7588  141.4970  166.9593 C.ar    1  UNL1        0.0814
     16 CL        141.0862  142.8362  166.8952 Cl      1  UNL1       -0.0807
     17 S         140.3855  140.9089  169.0848 S.O2    1  UNL1        0.0580
     18 N         139.3625  141.2844  170.1156 N.3     1  UNL1       -0.2034
     19 O         141.4485  141.5967  169.8893 O.2     1  UNL1       -0.1532
     20 O         139.3225  140.2211  168.2804 O.2     1  UNL1       -0.1532
     21 H         139.8121  141.8104  170.8650 H       1  UNL1        0.1442
     22 H         138.9405  140.4389  170.4995 H       1  UNL1        0.1442
     23 C         140.8198  142.7066  159.6271 C.ar    1  UNL1       -0.0204
     24 C         141.2949  142.0046  158.3896 C.ar    1  UNL1       -0.0041
     25 C         141.2556  142.7090  157.0658 C.ar    1  UNL1        0.0020
     26 C         140.7413  144.1155  156.9797 C.ar    1  UNL1        0.0296
     27 C         140.2662  144.8175  158.2172 C.ar    1  UNL1        0.1398
     28 F         139.7518  146.2238  158.1310 F       1  UNL1       -0.2042
     29 C         140.3054  144.1130  159.5409 C.ar    1  UNL1        0.0254
     30 C         139.7375  141.2556  160.2918 C.3     1  UNL1        0.0215
     31 C         138.3387  141.3855  160.8178 C.3     1  UNL1        0.0723
     32 C         138.3064  141.3750  160.9710 C.3     1  UNL1        0.0893
     33 C         138.3326  142.8746  160.9986 C.3     1  UNL1        0.0386
     34 C         138.0794  143.6056  162.2837 C.3     1  UNL1        0.0594
     35 C         137.7841  143.8962  163.7254 C.3     1  UNL1        0.0174
     36 C         137.6077  142.5867  164.4355 C.3     1  UNL1        0.0174
     37 C         137.7939  141.4868  163.4327 C.3     1  UNL1        0.0594
     38 C         138.0270  140.6066  162.2285 C.3     1  UNL1        0.0386
     39 N         138.0855  142.1165  162.1028 N.3     1  UNL1       -0.2751
     40 C         139.5398  138.6979  160.8848 C.3     1  UNL1        0.0718
     41 C         139.1798  139.2848  159.5521 C.ar    1  UNL1        0.1207
     42 N         139.2405  138.9447  158.0925 N.ar    1  UNL1       -0.2309
     43 C         138.6579  140.0936  157.3241 C.ar    1  UNL1        0.0983
     44 C         138.4561  140.3192  155.8550 C.ar    1  UNL1        0.0206
     45 C         137.8335  141.5950  155.3707 C.ar    1  UNL1        0.0016
     46 C         137.4127  142.6453  156.3555 C.ar    1  UNL1        0.0016
     47 C         137.6144  142.4197  157.8246 C.ar    1  UNL1        0.0188
     48 C         138.2370  141.1439  158.3089 C.ar    1  UNL1        0.0785
     49 N         138.5596  140.6440  159.6859 N.ar    1  UNL1       -0.3167
@<TRIPOS>BOND
     1    40    41    1
     2    41    42   ar
     3    42    43   ar
     4    43    44   ar
     5    44    45   ar
     6    45    46   ar
     7    46    47   ar
     8    47    48   ar
     9    48    49   ar
    10    49    32    1
    11    32    33    1
    12    33    34    1
    13    34    35    1
    14    35    36    1
    15    36    37    1
    16    37    38    1
    17    37    39    1
    18    39    31    1
    19    31    30    1
    20    30     1    1
    21     1    23    1
    22    23    24   ar
    23    24    25   ar
    24    25    26   ar
    25    26    27   ar
    26    27    28    1
    27    27    29   ar
    28     1     2    1
    29     2     3    1
    30     3     4    1
    31     4     5   am
    32     5     6    2
    33     5     9    1
    34     9    10   ar
    35    10    11    1
    36    10    12   ar
    37    12    13   ar
    38    13    14   ar
    39    14    17    1
    40    17    18    1
    41    17    19    2
    42    17    20    2
    43    14    15   ar
    44    15    16    1
    45     4     7    1
    46     7     8    1
    47    49    41   ar
    48    38    32    1
    49     8     1    1
    50    48    43   ar
    51    39    34    1
    52    29    23   ar
    53    15     9   ar
    54    18    21    1
    55    18    22    1
