@<TRIPOS>MOLECULE
*****
 35 38 0 0 0
SMALL
GASTEIGER

@<TRIPOS>ATOM
      1 C         141.7091  144.6889  158.2675 C.3     1  UNL1        0.0744
      2 C         141.3552  144.8188  159.7195 C.3     1  UNL1        0.0369
      3 C         142.1575  144.0886  160.7552 C.3     1  UNL1        0.0741
      4 N         143.3138  143.2283  160.3392 N.3     1  UNL1       -0.2688
      5 C         143.6677  143.0984  158.8874 C.3     1  UNL1        0.0741
      6 C         142.8654  143.8286  157.8515 C.3     1  UNL1        0.0369
      7 O         139.6216  143.2288  156.6831 O.2     1  UNL1       -0.2711
      8 C         139.8630  144.6891  156.4395 C.2     1  UNL1        0.2670
      9 N         140.9067  145.4191  157.2318 N.am    1  UNL1       -0.3028
     10 H         141.0652  146.3775  157.0719 H       1  UNL1        0.1495
     11 C         139.0606  145.4194  155.4037 C.3     1  UNL1        0.2893
     12 O         139.6415  146.6167  154.7117 O.3     1  UNL1       -0.4656
     13 C         139.3073  147.9972  155.1940 C.ar    1  UNL1        0.1401
     14 C         139.5565  149.1819  154.3083 C.ar    1  UNL1        0.0370
     15 C         139.2223  150.5623  154.7906 C.ar    1  UNL1        0.0040
     16 C         138.6389  150.7581  156.1586 C.ar    1  UNL1        0.0116
     17 C         138.3896  149.5734  157.0442 C.ar    1  UNL1        0.0607
     18 CL        137.8062  149.7692  158.4121 Cl      1  UNL1       -0.0821
     19 C         138.7238  148.1930  156.5619 C.ar    1  UNL1        0.0483
     20 C         144.1162  142.4981  161.3750 C.3     1  UNL1        0.1007
     21 C         143.5370  141.2978  162.0635 C.ar    1  UNL1        0.0129
     22 C         144.0874  139.9032  162.0162 C.ar    1  UNL1        0.0176
     23 C         143.1964  139.0249  162.8437 C.ar    1  UNL1        0.0799
     24 N         142.0953  139.8767  163.4024 N.ar    1  UNL1       -0.3038
     25 C         142.3058  141.2814  162.9202 C.ar    1  UNL1        0.0772
     26 C         140.9796  139.4064  164.2878 C.ar    1  UNL1        0.0640
     27 C         140.3249  138.0817  164.0297 C.ar    1  UNL1        0.0175
     28 C         139.2092  137.6113  164.9151 C.ar    1  UNL1        0.0053
     29 C         138.7482  138.4657  166.0586 C.ar    1  UNL1        0.0715
     30 C         139.4028  139.7903  166.3167 C.ar    1  UNL1        0.0053
     31 C         140.5185  140.2607  165.4313 C.ar    1  UNL1        0.0175
     32 C         137.6325  137.9953  166.9440 C.3     1  UNL1        0.4186
     33 F         136.5168  137.5250  167.8294 F       1  UNL1       -0.1659
     34 F         137.6876  136.6439  166.2956 F       1  UNL1       -0.1659
     35 F         137.5773  139.3468  167.5925 F       1  UNL1       -0.1659
@<TRIPOS>BOND
     1     7     8    2
     2     8    11    1
     3    11    12    1
     4    12    13    1
     5    13    14   ar
     6    14    15   ar
     7    15    16   ar
     8    16    17   ar
     9    17    18    1
    10    17    19   ar
    11     8     9   am
    12     9     1    1
    13     1     2    1
    14     2     3    1
    15     3     4    1
    16     4    20    1
    17    20    21    1
    18    21    22   ar
    19    22    23   ar
    20    23    24   ar
    21    24    26    1
    22    26    27   ar
    23    27    28   ar
    24    28    29   ar
    25    29    32    1
    26    32    33    1
    27    32    34    1
    28    32    35    1
    29    29    30   ar
    30    30    31   ar
    31    24    25   ar
    32     4     5    1
    33     5     6    1
    34    19    13   ar
    35     6     1    1
    36    25    21   ar
    37    31    26   ar
    38     9    10    1
@<TRIPOS>MOLECULE
*****
 35 38 0 0 0
SMALL
GASTEIGER

@<TRIPOS>ATOM
      1 C         142.6220  137.9521  158.4896 C.3     1  UNL1        0.0744
      2 C         142.8346  139.4101  158.2079 C.3     1  UNL1        0.0369
      3 C         143.4259  140.2991  159.2615 C.3     1  UNL1        0.0741
      4 N         143.8046  139.7302  160.5967 N.3     1  UNL1       -0.2688
      5 C         143.5920  138.2723  160.8785 C.3     1  UNL1        0.0741
      6 C         143.0007  137.3832  159.8249 C.3     1  UNL1        0.0369
      7 O         144.2726  137.1265  156.1245 O.2     1  UNL1       -0.2711
      8 C         142.8560  136.6503  156.2535 C.2     1  UNL1        0.2670
      9 N         142.0308  137.0631  157.4360 N.am    1  UNL1       -0.3028
     10 H         141.1010  136.7506  157.5207 H       1  UNL1        0.1495
     11 C         142.2648  135.7613  155.1998 C.3     1  UNL1        0.2893
     12 O         141.8545  134.3603  155.5444 O.3     1  UNL1       -0.4656
     13 C         142.8930  133.3467  155.9245 C.ar    1  UNL1        0.1401
     14 C         143.5742  133.4347  157.2579 C.ar    1  UNL1        0.0370
     15 C         144.6125  132.4211  157.6379 C.ar    1  UNL1        0.0040
     16 C         144.9697  131.3196  156.6845 C.ar    1  UNL1        0.0116
     17 C         144.2885  131.2316  155.3510 C.ar    1  UNL1        0.0607
     18 CL        144.6457  130.1301  154.3976 Cl      1  UNL1       -0.0821
     19 C         143.2501  132.2452  154.9710 C.ar    1  UNL1        0.0483
     20 C         144.3959  140.6192  161.6503 C.3     1  UNL1        0.1007
     21 C         144.0638  140.3928  163.0955 C.ar    1  UNL1        0.0129
     22 C         144.5734  139.2719  163.9522 C.ar    1  UNL1        0.0176
     23 C         143.9884  139.4339  165.3239 C.ar    1  UNL1        0.0799
     24 N         143.1172  140.6550  165.3149 N.ar    1  UNL1       -0.3038
     25 C         143.1638  141.2476  163.9377 C.ar    1  UNL1        0.0772
     26 C         142.3364  141.1896  166.4788 C.ar    1  UNL1        0.0640
     27 C         140.8898  140.8279  166.6411 C.ar    1  UNL1        0.0175
     28 C         140.1091  141.3624  167.8050 C.ar    1  UNL1        0.0053
     29 C         140.7750  142.2588  168.8066 C.ar    1  UNL1        0.0715
     30 C         142.2216  142.6205  168.6443 C.ar    1  UNL1        0.0053
     31 C         143.0024  142.0859  167.4804 C.ar    1  UNL1        0.0175
     32 C         139.9943  142.7933  169.9705 C.3     1  UNL1        0.4186
     33 F         139.2135  143.3279  171.1344 F       1  UNL1       -0.1659
     34 F         139.2669  141.4863  170.0829 F       1  UNL1       -0.1659
     35 F         140.7216  144.1003  169.8581 F       1  UNL1       -0.1659
@<TRIPOS>BOND
     1     7     8    2
     2     8    11    1
     3    11    12    1
     4    12    13    1
     5    13    14   ar
     6    14    15   ar
     7    15    16   ar
     8    16    17   ar
     9    17    18    1
    10    17    19   ar
    11     8     9   am
    12     9     1    1
    13     1     2    1
    14     2     3    1
    15     3     4    1
    16     4    20    1
    17    20    21    1
    18    21    22   ar
    19    22    23   ar
    20    23    24   ar
    21    24    26    1
    22    26    27   ar
    23    27    28   ar
    24    28    29   ar
    25    29    32    1
    26    32    33    1
    27    32    34    1
    28    32    35    1
    29    29    30   ar
    30    30    31   ar
    31    24    25   ar
    32     4     5    1
    33     5     6    1
    34    19    13   ar
    35     6     1    1
    36    25    21   ar
    37    31    26   ar
    38     9    10    1
@<TRIPOS>MOLECULE
*****
 35 38 0 0 0
SMALL
GASTEIGER

@<TRIPOS>ATOM
      1 C         142.5550  138.2917  158.2769 C.3     1  UNL1        0.0744
      2 C         142.9795  137.7856  159.6237 C.3     1  UNL1        0.0369
      3 C         143.5443  138.7354  160.6380 C.3     1  UNL1        0.0741
      4 N         143.6847  140.1913  160.3056 N.3     1  UNL1       -0.2688
      5 C         143.2603  140.6975  158.9589 C.3     1  UNL1        0.0741
      6 C         142.6954  139.7477  157.9445 C.3     1  UNL1        0.0369
      7 O         144.2460  137.3766  155.9741 O.2     1  UNL1       -0.2711
      8 C         142.8357  136.8844  156.1112 C.2     1  UNL1        0.2670
      9 N         141.9902  137.3420  157.2626 N.am    1  UNL1       -0.3028
     10 H         141.0646  137.0189  157.3526 H       1  UNL1        0.1495
     11 C         142.2709  135.9346  155.0968 C.3     1  UNL1        0.2893
     12 O         141.8153  134.5695  155.5197 O.3     1  UNL1       -0.4656
     13 C         142.8126  133.4590  155.6699 C.ar    1  UNL1        0.1401
     14 C         142.8822  132.3693  154.6415 C.ar    1  UNL1        0.0370
     15 C         143.8794  131.2589  154.7918 C.ar    1  UNL1        0.0040
     16 C         144.8070  131.2383  155.9704 C.ar    1  UNL1        0.0116
     17 C         144.7373  132.3280  156.9988 C.ar    1  UNL1        0.0607
     18 CL        145.6649  132.3074  158.1775 Cl      1  UNL1       -0.0821
     19 C         143.7401  133.4384  156.8485 C.ar    1  UNL1        0.0483
     20 C         144.2495  141.1411  161.3199 C.3     1  UNL1        0.1007
     21 C         144.0234  140.8979  162.7827 C.ar    1  UNL1        0.0129
     22 C         144.6938  139.8459  163.6156 C.ar    1  UNL1        0.0176
     23 C         144.1719  139.9618  165.0170 C.ar    1  UNL1        0.0799
     24 N         143.1788  141.0856  165.0503 N.ar    1  UNL1       -0.3038
     25 C         143.0870  141.6641  163.6694 C.ar    1  UNL1        0.0772
     26 C         142.4122  141.5494  166.2533 C.ar    1  UNL1        0.0640
     27 C         140.9139  141.4771  166.2615 C.ar    1  UNL1        0.0175
     28 C         140.1473  141.9409  167.4644 C.ar    1  UNL1        0.0053
     29 C         140.8789  142.4769  168.6592 C.ar    1  UNL1        0.0715
     30 C         142.3771  142.5492  168.6510 C.ar    1  UNL1        0.0053
     31 C         143.1438  142.0854  167.4481 C.ar    1  UNL1        0.0175
     32 C         140.1122  142.9407  169.8622 C.3     1  UNL1        0.4186
     33 F         139.3456  143.4045  171.0652 F       1  UNL1       -0.1659
     34 F         140.9285  144.1986  169.8974 F       1  UNL1       -0.1659
     35 F         139.2960  141.6828  169.8269 F       1  UNL1       -0.1659
@<TRIPOS>BOND
     1     7     8    2
     2     8    11    1
     3    11    12    1
     4    12    13    1
     5    13    14   ar
     6    14    15   ar
     7    15    16   ar
     8    16    17   ar
     9    17    18    1
    10    17    19   ar
    11     8     9   am
    12     9     1    1
    13     1     2    1
    14     2     3    1
    15     3     4    1
    16     4    20    1
    17    20    21    1
    18    21    22   ar
    19    22    23   ar
    20    23    24   ar
    21    24    26    1
    22    26    27   ar
    23    27    28   ar
    24    28    29   ar
    25    29    32    1
    26    32    33    1
    27    32    34    1
    28    32    35    1
    29    29    30   ar
    30    30    31   ar
    31    24    25   ar
    32     4     5    1
    33     5     6    1
    34    19    13   ar
    35     6     1    1
    36    25    21   ar
    37    31    26   ar
    38     9    10    1
@<TRIPOS>MOLECULE
*****
 35 38 0 0 0
SMALL
GASTEIGER

@<TRIPOS>ATOM
      1 C         143.3511  139.2585  159.4408 C.3     1  UNL1        0.0744
      2 C         141.8554  139.1510  159.4005 C.3     1  UNL1        0.0369
      3 C         141.1208  138.4843  160.5255 C.3     1  UNL1        0.0741
      4 N         141.8817  137.9250  161.6909 N.3     1  UNL1       -0.2688
      5 C         143.3773  138.0325  161.7313 C.3     1  UNL1        0.0741
      6 C         144.1120  138.6992  160.6062 C.3     1  UNL1        0.0369
      7 O         143.6506  142.2432  159.4055 O.2     1  UNL1       -0.2711
      8 C         144.2355  141.4176  158.2981 C.2     1  UNL1        0.2670
      9 N         144.0857  139.9252  158.3158 N.am    1  UNL1       -0.3028
     10 H         144.4696  139.3833  157.5890 H       1  UNL1        0.1495
     11 C         144.9701  142.0844  157.1730 C.3     1  UNL1        0.2893
     12 O         146.4683  142.1544  157.1929 O.3     1  UNL1       -0.4656
     13 C         147.2208  142.4786  155.9363 C.ar    1  UNL1        0.1401
     14 C         148.5640  141.8599  155.6858 C.ar    1  UNL1        0.0370
     15 C         149.3164  142.1840  154.4293 C.ar    1  UNL1        0.0040
     16 C         148.7255  143.1269  153.4233 C.ar    1  UNL1        0.0116
     17 C         147.3822  143.7455  153.6739 C.ar    1  UNL1        0.0607
     18 CL        146.7913  144.6883  152.6679 Cl      1  UNL1       -0.0821
     19 C         146.6298  143.4214  154.9304 C.ar    1  UNL1        0.0483
     20 C         141.1471  137.2583  162.8160 C.3     1  UNL1        0.1007
     21 C         140.8097  138.0335  164.0551 C.ar    1  UNL1        0.0129
     22 C         139.4619  138.1074  164.7092 C.ar    1  UNL1        0.0176
     23 C         139.5801  138.9904  165.9160 C.ar    1  UNL1        0.0799
     24 N         141.0010  139.4624  166.0076 N.ar    1  UNL1       -0.3038
     25 C         141.7609  138.8710  164.8575 C.ar    1  UNL1        0.0772
     26 C         141.5633  140.3669  167.0638 C.ar    1  UNL1        0.0640
     27 C         141.3150  140.0721  168.5135 C.ar    1  UNL1        0.0175
     28 C         141.8773  140.9766  169.5697 C.ar    1  UNL1        0.0053
     29 C         142.6878  142.1760  169.1763 C.ar    1  UNL1        0.0715
     30 C         142.9360  142.4708  167.7267 C.ar    1  UNL1        0.0053
     31 C         142.3738  141.5663  166.6705 C.ar    1  UNL1        0.0175
     32 C         143.2500  143.0805  170.2326 C.3     1  UNL1        0.4186
     33 F         143.8123  143.9850  171.2888 F       1  UNL1       -0.1659
     34 F         144.5675  142.3695  170.1402 F       1  UNL1       -0.1659
     35 F         141.9325  143.7915  170.3250 F       1  UNL1       -0.1659
@<TRIPOS>BOND
     1     7     8    2
     2     8    11    1
     3    11    12    1
     4    12    13    1
     5    13    14   ar
     6    14    15   ar
     7    15    16   ar
     8    16    17   ar
     9    17    18    1
    10    17    19   ar
    11     8     9   am
    12     9     1    1
    13     1     2    1
    14     2     3    1
    15     3     4    1
    16     4    20    1
    17    20    21    1
    18    21    22   ar
    19    22    23   ar
    20    23    24   ar
    21    24    26    1
    22    26    27   ar
    23    27    28   ar
    24    28    29   ar
    25    29    32    1
    26    32    33    1
    27    32    34    1
    28    32    35    1
    29    29    30   ar
    30    30    31   ar
    31    24    25   ar
    32     4     5    1
    33     5     6    1
    34    19    13   ar
    35     6     1    1
    36    25    21   ar
    37    31    26   ar
    38     9    10    1
@<TRIPOS>MOLECULE
*****
 35 38 0 0 0
SMALL
GASTEIGER

@<TRIPOS>ATOM
      1 C         138.5682  140.3644  159.0547 C.3     1  UNL1        0.0744
      2 C         138.0461  139.5472  160.1991 C.3     1  UNL1        0.0369
      3 C         138.9871  138.7099  161.0136 C.3     1  UNL1        0.0741
      4 N         140.4502  138.6897  160.6837 N.3     1  UNL1       -0.2688
      5 C         140.9724  139.5069  159.5393 C.3     1  UNL1        0.0741
      6 C         140.0314  140.3442  158.7248 C.3     1  UNL1        0.0369
      7 O         137.8657  139.5405  156.2569 O.2     1  UNL1       -0.2711
      8 C         137.2760  140.7898  156.8413 C.2     1  UNL1        0.2670
      9 N         137.6273  141.2017  158.2402 N.am    1  UNL1       -0.3028
     10 H         137.2402  142.0217  158.6237 H       1  UNL1        0.1495
     11 C         136.3350  141.6271  156.0268 C.3     1  UNL1        0.2893
     12 O         135.2817  140.9689  155.1858 O.3     1  UNL1       -0.4656
     13 C         133.9346  140.6660  155.7722 C.ar    1  UNL1        0.1401
     14 C         133.8074  139.6636  156.8808 C.ar    1  UNL1        0.0370
     15 C         132.4604  139.3608  157.4671 C.ar    1  UNL1        0.0040
     16 C         131.2406  140.0604  156.9449 C.ar    1  UNL1        0.0116
     17 C         131.3679  141.0628  155.8364 C.ar    1  UNL1        0.0607
     18 CL        130.1481  141.7624  155.3142 Cl      1  UNL1       -0.0821
     19 C         132.7149  141.3656  155.2500 C.ar    1  UNL1        0.0483
     20 C         141.3912  137.8524  161.4982 C.3     1  UNL1        0.1007
     21 C         142.2736  138.4989  162.5246 C.ar    1  UNL1        0.0129
     22 C         143.7701  138.5861  162.4716 C.ar    1  UNL1        0.0176
     23 C         144.2359  139.3128  163.6984 C.ar    1  UNL1        0.0799
     24 N         143.0271  139.6747  164.5096 N.ar    1  UNL1       -0.3038
     25 C         141.8144  139.1717  163.7841 C.ar    1  UNL1        0.0772
     26 C         143.0305  140.4104  165.8168 C.ar    1  UNL1        0.0640
     27 C         142.6894  139.6867  167.0856 C.ar    1  UNL1        0.0175
     28 C         142.6929  140.4225  168.3927 C.ar    1  UNL1        0.0053
     29 C         143.0374  141.8819  168.4311 C.ar    1  UNL1        0.0715
     30 C         143.3785  142.6056  167.1623 C.ar    1  UNL1        0.0053
     31 C         143.3751  141.8698  165.8551 C.ar    1  UNL1        0.0175
     32 C         143.0408  142.6176  169.7382 C.3     1  UNL1        0.4186
     33 F         143.0442  143.3533  171.0454 F       1  UNL1       -0.1659
     34 F         144.5353  142.5045  169.7980 F       1  UNL1       -0.1659
     35 F         141.5463  142.7307  169.6785 F       1  UNL1       -0.1659
@<TRIPOS>BOND
     1     7     8    2
     2     8    11    1
     3    11    12    1
     4    12    13    1
     5    13    14   ar
     6    14    15   ar
     7    15    16   ar
     8    16    17   ar
     9    17    18    1
    10    17    19   ar
    11     8     9   am
    12     9     1    1
    13     1     2    1
    14     2     3    1
    15     3     4    1
    16     4    20    1
    17    20    21    1
    18    21    22   ar
    19    22    23   ar
    20    23    24   ar
    21    24    26    1
    22    26    27   ar
    23    27    28   ar
    24    28    29   ar
    25    29    32    1
    26    32    33    1
    27    32    34    1
    28    32    35    1
    29    29    30   ar
    30    30    31   ar
    31    24    25   ar
    32     4     5    1
    33     5     6    1
    34    19    13   ar
    35     6     1    1
    36    25    21   ar
    37    31    26   ar
    38     9    10    1
@<TRIPOS>MOLECULE
*****
 35 38 0 0 0
SMALL
GASTEIGER

@<TRIPOS>ATOM
      1 C         139.5864  139.2616  157.1298 C.3     1  UNL1        0.0744
      2 C         138.5089  140.2976  157.2563 C.3     1  UNL1        0.0369
      3 C         138.0031  140.6919  158.6123 C.3     1  UNL1        0.0741
      4 N         138.5747  140.0503  159.8417 N.3     1  UNL1       -0.2688
      5 C         139.6521  139.0144  159.7152 C.3     1  UNL1        0.0741
      6 C         140.1580  138.6200  158.3592 C.3     1  UNL1        0.0369
      7 O         138.4203  136.8792  155.7284 O.2     1  UNL1       -0.2711
      8 C         139.5091  137.6761  155.0731 C.2     1  UNL1        0.2670
      9 N         140.0922  138.8673  155.7738 N.am    1  UNL1       -0.3028
     10 H         140.8068  139.3904  155.3437 H       1  UNL1        0.1495
     11 C         140.0149  137.2817  153.7171 C.3     1  UNL1        0.2893
     12 O         140.5745  135.9078  153.4958 O.3     1  UNL1       -0.4656
     13 C         141.6651  135.3898  154.3860 C.ar    1  UNL1        0.1401
     14 C         142.8739  136.2344  154.6604 C.ar    1  UNL1        0.0370
     15 C         143.9644  135.7164  155.5506 C.ar    1  UNL1        0.0040
     16 C         143.8460  134.3537  156.1663 C.ar    1  UNL1        0.0116
     17 C         142.6372  133.5091  155.8919 C.ar    1  UNL1        0.0607
     18 CL        142.5189  132.1464  156.5077 Cl      1  UNL1       -0.0821
     19 C         141.5468  134.0271  155.0018 C.ar    1  UNL1        0.0483
     20 C         138.0689  140.4446  161.1977 C.3     1  UNL1        0.1007
     21 C         138.5569  139.7234  162.4191 C.ar    1  UNL1        0.0129
     22 C         138.3343  138.2741  162.7351 C.ar    1  UNL1        0.0176
     23 C         138.9930  137.9799  164.0503 C.ar    1  UNL1        0.0799
     24 N         139.6227  139.2475  164.5471 N.ar    1  UNL1       -0.3038
     25 C         139.3532  140.3250  163.5390 C.ar    1  UNL1        0.0772
     26 C         140.3876  139.4091  165.8272 C.ar    1  UNL1        0.0640
     27 C         141.8579  139.1146  165.8647 C.ar    1  UNL1        0.0175
     28 C         142.6228  139.2762  167.1448 C.ar    1  UNL1        0.0053
     29 C         141.9174  139.7324  168.3875 C.ar    1  UNL1        0.0715
     30 C         140.4471  140.0270  168.3501 C.ar    1  UNL1        0.0053
     31 C         139.6822  139.8654  167.0699 C.ar    1  UNL1        0.0175
     32 C         142.6824  139.8940  169.6676 C.3     1  UNL1        0.4186
     33 F         143.4473  140.0557  170.9478 F       1  UNL1       -0.1659
     34 F         143.3493  141.1184  169.1145 F       1  UNL1       -0.1659
     35 F         142.0154  138.6696  170.2208 F       1  UNL1       -0.1659
@<TRIPOS>BOND
     1     7     8    2
     2     8    11    1
     3    11    12    1
     4    12    13    1
     5    13    14   ar
     6    14    15   ar
     7    15    16   ar
     8    16    17   ar
     9    17    18    1
    10    17    19   ar
    11     8     9   am
    12     9     1    1
    13     1     2    1
    14     2     3    1
    15     3     4    1
    16     4    20    1
    17    20    21    1
    18    21    22   ar
    19    22    23   ar
    20    23    24   ar
    21    24    26    1
    22    26    27   ar
    23    27    28   ar
    24    28    29   ar
    25    29    32    1
    26    32    33    1
    27    32    34    1
    28    32    35    1
    29    29    30   ar
    30    30    31   ar
    31    24    25   ar
    32     4     5    1
    33     5     6    1
    34    19    13   ar
    35     6     1    1
    36    25    21   ar
    37    31    26   ar
    38     9    10    1
@<TRIPOS>MOLECULE
*****
 35 38 0 0 0
SMALL
GASTEIGER

@<TRIPOS>ATOM
      1 C         140.4095  139.0599  161.1650 C.3     1  UNL1        0.0744
      2 C         139.5405  138.7491  159.9825 C.3     1  UNL1        0.0369
      3 C         140.1461  138.6410  158.6145 C.3     1  UNL1        0.0741
      4 N         141.6207  138.8438  158.4289 N.3     1  UNL1       -0.2688
      5 C         142.4897  139.1546  159.6114 C.3     1  UNL1        0.0741
      6 C         141.8841  139.2627  160.9795 C.3     1  UNL1        0.0369
      7 O         140.8036  136.8530  163.1584 O.2     1  UNL1       -0.2711
      8 C         140.0009  138.0646  163.5297 C.2     1  UNL1        0.2670
      9 N         139.8038  139.1680  162.5330 N.am    1  UNL1       -0.3028
     10 H         139.2770  139.9632  162.7767 H       1  UNL1        0.1495
     11 C         139.3952  138.1726  164.8978 C.3     1  UNL1        0.2893
     12 O         138.3609  139.2218  165.1794 O.3     1  UNL1       -0.4656
     13 C         138.7732  140.6533  165.3552 C.ar    1  UNL1        0.1401
     14 C         139.8503  141.0085  166.3368 C.ar    1  UNL1        0.0370
     15 C         140.2625  142.4399  166.5126 C.ar    1  UNL1        0.0040
     16 C         139.5976  143.5163  165.7067 C.ar    1  UNL1        0.0116
     17 C         138.5205  143.1611  164.7251 C.ar    1  UNL1        0.0607
     18 CL        137.8556  144.2374  163.9192 Cl      1  UNL1       -0.0821
     19 C         138.1083  141.7297  164.5493 C.ar    1  UNL1        0.0483
     20 C         142.2264  138.7357  157.0609 C.3     1  UNL1        0.1007
     21 C         142.8677  137.4520  156.6239 C.ar    1  UNL1        0.0129
     22 C         143.8178  137.2875  155.4748 C.ar    1  UNL1        0.0176
     23 C         144.2088  135.8414  155.4000 C.ar    1  UNL1        0.0799
     24 N         143.5004  135.1120  156.5028 N.ar    1  UNL1       -0.3038
     25 C         142.6716  136.1074  157.2592 C.ar    1  UNL1        0.0772
     26 C         143.6028  133.6448  156.7975 C.ar    1  UNL1        0.0640
     27 C         144.7047  133.1315  157.6764 C.ar    1  UNL1        0.0175
     28 C         144.8071  131.6643  157.9710 C.ar    1  UNL1        0.0053
     29 C         143.8077  130.7104  157.3869 C.ar    1  UNL1        0.0715
     30 C         142.7058  131.2237  156.5080 C.ar    1  UNL1        0.0053
     31 C         142.6033  132.6909  156.2134 C.ar    1  UNL1        0.0175
     32 C         143.9101  129.2432  157.6816 C.3     1  UNL1        0.4186
     33 F         144.0125  127.7761  157.9762 F       1  UNL1       -0.1659
     34 F         145.2149  129.4754  158.3842 F       1  UNL1       -0.1659
     35 F         142.6054  129.0110  156.9789 F       1  UNL1       -0.1659
@<TRIPOS>BOND
     1     7     8    2
     2     8    11    1
     3    11    12    1
     4    12    13    1
     5    13    14   ar
     6    14    15   ar
     7    15    16   ar
     8    16    17   ar
     9    17    18    1
    10    17    19   ar
    11     8     9   am
    12     9     1    1
    13     1     2    1
    14     2     3    1
    15     3     4    1
    16     4    20    1
    17    20    21    1
    18    21    22   ar
    19    22    23   ar
    20    23    24   ar
    21    24    26    1
    22    26    27   ar
    23    27    28   ar
    24    28    29   ar
    25    29    32    1
    26    32    33    1
    27    32    34    1
    28    32    35    1
    29    29    30   ar
    30    30    31   ar
    31    24    25   ar
    32     4     5    1
    33     5     6    1
    34    19    13   ar
    35     6     1    1
    36    25    21   ar
    37    31    26   ar
    38     9    10    1
@<TRIPOS>MOLECULE
*****
 35 38 0 0 0
SMALL
GASTEIGER

@<TRIPOS>ATOM
      1 C         138.7357  141.3378  158.3596 C.3     1  UNL1        0.0744
      2 C         140.0257  140.5825  158.2350 C.3     1  UNL1        0.0369
      3 C         141.3082  141.2069  158.6992 C.3     1  UNL1        0.0741
      4 N         141.3007  142.5865  159.2879 N.3     1  UNL1       -0.2688
      5 C         140.0108  143.3418  159.4125 C.3     1  UNL1        0.0741
      6 C         138.7282  142.7174  158.9484 C.3     1  UNL1        0.0369
      7 O         137.3500  142.3958  155.9183 O.2     1  UNL1       -0.2711
      8 C         136.7604  141.2425  156.6748 C.2     1  UNL1        0.2670
      9 N         137.4533  140.7135  157.8955 N.am    1  UNL1       -0.3028
     10 H         137.0663  139.9565  158.3920 H       1  UNL1        0.1495
     11 C         135.4779  140.6181  156.2106 C.3     1  UNL1        0.2893
     12 O         134.6776  139.7632  157.1479 O.3     1  UNL1       -0.4656
     13 C         133.1824  139.7227  157.0346 C.ar    1  UNL1        0.1401
     14 C         132.4005  138.6907  157.7919 C.ar    1  UNL1        0.0370
     15 C         130.9054  138.6503  157.6787 C.ar    1  UNL1        0.0040
     16 C         130.1921  139.6419  156.8081 C.ar    1  UNL1        0.0116
     17 C         130.9739  140.6739  156.0508 C.ar    1  UNL1        0.0607
     18 CL        130.2606  141.6656  155.1803 Cl      1  UNL1       -0.0821
     19 C         132.4691  140.7144  156.1641 C.ar    1  UNL1        0.0483
     20 C         142.5831  143.2108  159.7521 C.3     1  UNL1        0.1007
     21 C         142.9714  143.1393  161.1993 C.ar    1  UNL1        0.0129
     22 C         144.3660  143.2327  161.7436 C.ar    1  UNL1        0.0176
     23 C         144.2898  143.1130  163.2368 C.ar    1  UNL1        0.0799
     24 N         142.8480  142.9455  163.6154 N.ar    1  UNL1       -0.3038
     25 C         142.0332  142.9618  162.3561 C.ar    1  UNL1        0.0772
     26 C         142.3147  142.7892  165.0087 C.ar    1  UNL1        0.0640
     27 C         140.8797  143.1121  165.3030 C.ar    1  UNL1        0.0175
     28 C         140.3464  142.9558  166.6963 C.ar    1  UNL1        0.0053
     29 C         141.2480  142.4765  167.7951 C.ar    1  UNL1        0.0715
     30 C         142.6830  142.1536  167.5007 C.ar    1  UNL1        0.0053
     31 C         143.2163  142.3099  166.1075 C.ar    1  UNL1        0.0175
     32 C         140.7147  142.3202  169.1883 C.3     1  UNL1        0.4186
     33 F         140.1814  142.1639  170.5816 F       1  UNL1       -0.1659
     34 F         141.3315  140.9554  169.2713 F       1  UNL1       -0.1659
     35 F         140.0979  143.6850  169.1053 F       1  UNL1       -0.1659
@<TRIPOS>BOND
     1     7     8    2
     2     8    11    1
     3    11    12    1
     4    12    13    1
     5    13    14   ar
     6    14    15   ar
     7    15    16   ar
     8    16    17   ar
     9    17    18    1
    10    17    19   ar
    11     8     9   am
    12     9     1    1
    13     1     2    1
    14     2     3    1
    15     3     4    1
    16     4    20    1
    17    20    21    1
    18    21    22   ar
    19    22    23   ar
    20    23    24   ar
    21    24    26    1
    22    26    27   ar
    23    27    28   ar
    24    28    29   ar
    25    29    32    1
    26    32    33    1
    27    32    34    1
    28    32    35    1
    29    29    30   ar
    30    30    31   ar
    31    24    25   ar
    32     4     5    1
    33     5     6    1
    34    19    13   ar
    35     6     1    1
    36    25    21   ar
    37    31    26   ar
    38     9    10    1
@<TRIPOS>MOLECULE
*****
 35 38 0 0 0
SMALL
GASTEIGER

@<TRIPOS>ATOM
      1 C         142.2709  138.4960  157.9166 C.3     1  UNL1        0.0744
      2 C         142.4737  139.9085  157.4540 C.3     1  UNL1        0.0369
      3 C         143.1134  140.9122  158.3668 C.3     1  UNL1        0.0741
      4 N         143.5505  140.5035  159.7423 N.3     1  UNL1       -0.2688
      5 C         143.3478  139.0911  160.2049 C.3     1  UNL1        0.0741
      6 C         142.7080  138.0874  159.2921 C.3     1  UNL1        0.0369
      7 O         143.9794  136.7386  156.1869 O.2     1  UNL1       -0.2711
      8 C         142.4854  136.6137  156.1389 C.2     1  UNL1        0.2670
      9 N         141.6312  137.4924  157.0038 N.am    1  UNL1       -0.3028
     10 H         140.6506  137.4103  156.9723 H       1  UNL1        0.1495
     11 C         141.8457  135.6099  155.2260 C.3     1  UNL1        0.2893
     12 O         141.5585  134.2230  155.7199 O.3     1  UNL1       -0.4656
     13 C         142.6652  133.2143  155.8088 C.ar    1  UNL1        0.1401
     14 C         142.8124  132.1667  154.7454 C.ar    1  UNL1        0.0370
     15 C         143.9190  131.1581  154.8344 C.ar    1  UNL1        0.0040
     16 C         144.8785  131.1971  155.9868 C.ar    1  UNL1        0.0116
     17 C         144.7313  132.2447  157.0502 C.ar    1  UNL1        0.0607
     18 CL        145.6907  132.2837  158.2025 Cl      1  UNL1       -0.0821
     19 C         143.6246  133.2533  156.9612 C.ar    1  UNL1        0.0483
     20 C         144.1902  141.5072  160.6551 C.3     1  UNL1        0.1007
     21 C         143.3765  142.1747  161.7239 C.ar    1  UNL1        0.0129
     22 C         142.4965  143.3756  161.5413 C.ar    1  UNL1        0.0176
     23 C         141.8760  143.7016  162.8675 C.ar    1  UNL1        0.0799
     24 N         142.3726  142.7021  163.8698 N.ar    1  UNL1       -0.3038
     25 C         143.2999  141.7584  163.1630 C.ar    1  UNL1        0.0772
     26 C         142.0062  142.6546  165.3235 C.ar    1  UNL1        0.0640
     27 C         140.6065  142.9784  165.7551 C.ar    1  UNL1        0.0175
     28 C         140.2401  142.9309  167.2089 C.ar    1  UNL1        0.0053
     29 C         141.2733  142.5597  168.2311 C.ar    1  UNL1        0.0715
     30 C         142.6729  142.2360  167.7995 C.ar    1  UNL1        0.0053
     31 C         143.0393  142.2834  166.3457 C.ar    1  UNL1        0.0175
     32 C         140.9068  142.5122  169.6848 C.3     1  UNL1        0.4186
     33 F         140.5404  142.4647  171.1386 F       1  UNL1       -0.1659
     34 F         139.7536  141.6081  169.3646 F       1  UNL1       -0.1659
     35 F         142.0601  143.4163  170.0050 F       1  UNL1       -0.1659
@<TRIPOS>BOND
     1     7     8    2
     2     8    11    1
     3    11    12    1
     4    12    13    1
     5    13    14   ar
     6    14    15   ar
     7    15    16   ar
     8    16    17   ar
     9    17    18    1
    10    17    19   ar
    11     8     9   am
    12     9     1    1
    13     1     2    1
    14     2     3    1
    15     3     4    1
    16     4    20    1
    17    20    21    1
    18    21    22   ar
    19    22    23   ar
    20    23    24   ar
    21    24    26    1
    22    26    27   ar
    23    27    28   ar
    24    28    29   ar
    25    29    32    1
    26    32    33    1
    27    32    34    1
    28    32    35    1
    29    29    30   ar
    30    30    31   ar
    31    24    25   ar
    32     4     5    1
    33     5     6    1
    34    19    13   ar
    35     6     1    1
    36    25    21   ar
    37    31    26   ar
    38     9    10    1
