@<TRIPOS>MOLECULE
*****
 31 33 0 0 0
SMALL
GASTEIGER

@<TRIPOS>ATOM
      1 C         140.3840  142.2251  164.9803 C.2     1  UNL1        0.2488
      2 O         141.5650  141.7203  164.2056 O.2     1  UNL1       -0.2700
      3 N         139.3481  143.0716  164.3018 N.am    1  UNL1       -0.2999
      4 H         138.5730  143.4029  164.8104 H       1  UNL1        0.1498
      5 C         139.8458  140.4946  166.8421 C.ar    1  UNL1        0.1443
      6 C         139.7006  140.1530  168.2954 C.ar    1  UNL1        0.0520
      7 C         139.9485  141.2002  169.3404 C.ar    1  UNL1        0.0553
      8 N         139.8033  140.8585  170.7938 N.pl3   1  UNL1       -0.3563
      9 C         140.3416  142.5889  168.9320 C.ar    1  UNL1        0.0709
     10 CL        140.5895  143.6361  169.9770 Cl      1  UNL1       -0.0810
     11 C         140.4868  142.9306  167.4787 C.ar    1  UNL1        0.0202
     12 C         140.2388  141.8834  166.4337 C.ar    1  UNL1        0.0882
     13 H         139.5453  139.9470  171.0618 H       1  UNL1        0.1424
     14 H         139.9661  141.5458  171.4796 H       1  UNL1        0.1424
     15 C         138.2933  138.7075  165.7715 C.3     1  UNL1        0.2525
     16 O         139.5978  139.4475  165.7971 O.3     1  UNL1       -0.4712
     17 C         139.4933  143.4133  162.8485 C.3     1  UNL1        0.1017
     18 C         138.7526  142.6191  161.8137 C.3     1  UNL1        0.0394
     19 C         138.8978  142.9608  160.3604 C.3     1  UNL1        0.0740
     20 N         139.7836  144.0967  159.9418 N.3     1  UNL1       -0.2689
     21 C         140.5242  144.8909  160.9766 C.3     1  UNL1        0.1037
     22 C         140.3791  144.5492  162.4299 C.3     1  UNL1        0.1490
     23 O         141.1197  145.3433  163.4647 O.3     1  UNL1       -0.3505
     24 C         142.5950  145.1442  163.6488 C.3     1  UNL1        0.1741
     25 C         139.9287  144.4384  158.4885 C.3     1  UNL1        0.0969
     26 C         140.5041  145.7630  158.0833 C.3     1  UNL1        0.1234
     27 N         140.1776  146.3429  156.7390 N.ar    1  UNL1       -0.3235
     28 C         140.8802  146.0323  155.4506 C.ar    1  UNL1        0.0760
     29 C         140.2281  146.8326  154.3624 C.ar    1  UNL1        0.0202
     30 C         139.1224  147.6378  154.9782 C.ar    1  UNL1        0.0202
     31 C         139.0912  147.3351  156.4470 C.ar    1  UNL1        0.0760
@<TRIPOS>BOND
     1    15    16    1
     2    16     5    1
     3     5     6   ar
     4     6     7   ar
     5     7     8    1
     6     7     9   ar
     7     9    10    1
     8     9    11   ar
     9    11    12   ar
    10    12     1    1
    11     1     2    2
    12     1     3   am
    13    17     3    1
    14    17    18    1
    15    18    19    1
    16    19    20    1
    17    20    25    1
    18    25    26    1
    19    26    27    1
    20    27    28   ar
    21    28    29   ar
    22    29    30   ar
    23    30    31   ar
    24    20    21    1
    25    21    22    1
    26    22    23    1
    27    23    24    1
    28    12     5   ar
    29    22    17    1
    30    31    27   ar
    31     8    13    1
    32     8    14    1
    33     3     4    1
@<TRIPOS>MOLECULE
*****
 31 33 0 0 0
SMALL
GASTEIGER

@<TRIPOS>ATOM
      1 C         141.8427  139.2871  165.7536 C.2     1  UNL1        0.2488
      2 O         142.1945  137.8872  165.3455 O.2     1  UNL1       -0.2700
      3 N         141.8316  140.3857  164.7324 N.am    1  UNL1       -0.2999
      4 H         141.6007  141.3045  165.0003 H       1  UNL1        0.1498
      5 C         140.1112  140.0143  167.5489 C.ar    1  UNL1        0.1443
      6 C         139.7706  140.3156  168.9783 C.ar    1  UNL1        0.0520
      7 C         140.8210  140.1910  170.0419 C.ar    1  UNL1        0.0553
      8 N         140.4804  140.4923  171.4713 N.pl3   1  UNL1       -0.3563
      9 C         142.2120  139.7651  169.6761 C.ar    1  UNL1        0.0709
     10 CL        143.2623  139.6405  170.7396 Cl      1  UNL1       -0.0810
     11 C         142.5525  139.4638  168.2467 C.ar    1  UNL1        0.0202
     12 C         141.5021  139.5884  167.1831 C.ar    1  UNL1        0.0882
     13 H         139.5675  140.7718  171.7115 H       1  UNL1        0.1424
     14 H         141.1698  140.4105  172.1694 H       1  UNL1        0.1424
     15 C         138.1209  138.9999  166.2224 C.3     1  UNL1        0.2525
     16 O         139.0608  140.1389  166.4854 O.3     1  UNL1       -0.4712
     17 C         142.1722  140.0845  163.3030 C.3     1  UNL1        0.1017
     18 C         141.0776  139.8972  162.2946 C.3     1  UNL1        0.0394
     19 C         141.4183  139.5959  160.8652 C.3     1  UNL1        0.0740
     20 N         142.8534  139.4820  160.4442 N.3     1  UNL1       -0.2689
     21 C         143.9480  139.6693  161.4526 C.3     1  UNL1        0.1037
     22 C         143.6074  139.9705  162.8819 C.3     1  UNL1        0.1490
     23 O         144.7020  140.1578  163.8903 O.3     1  UNL1       -0.3505
     24 C         145.5655  141.3833  163.8410 C.3     1  UNL1        0.1741
     25 C         143.1940  139.1807  159.0148 C.3     1  UNL1        0.0969
     26 C         142.3417  138.2327  158.2244 C.3     1  UNL1        0.1234
     27 N         142.9711  137.3301  157.2050 N.ar    1  UNL1       -0.3235
     28 C         142.9811  135.8306  157.2414 C.ar    1  UNL1        0.0760
     29 C         143.7171  135.3423  156.0291 C.ar    1  UNL1        0.0202
     30 C         144.1621  136.5401  155.2433 C.ar    1  UNL1        0.0202
     31 C         143.7010  137.7686  155.9700 C.ar    1  UNL1        0.0760
@<TRIPOS>BOND
     1    15    16    1
     2    16     5    1
     3     5     6   ar
     4     6     7   ar
     5     7     8    1
     6     7     9   ar
     7     9    10    1
     8     9    11   ar
     9    11    12   ar
    10    12     1    1
    11     1     2    2
    12     1     3   am
    13    17     3    1
    14    17    18    1
    15    18    19    1
    16    19    20    1
    17    20    25    1
    18    25    26    1
    19    26    27    1
    20    27    28   ar
    21    28    29   ar
    22    29    30   ar
    23    30    31   ar
    24    20    21    1
    25    21    22    1
    26    22    23    1
    27    23    24    1
    28    12     5   ar
    29    22    17    1
    30    31    27   ar
    31     8    13    1
    32     8    14    1
    33     3     4    1
@<TRIPOS>MOLECULE
*****
 31 33 0 0 0
SMALL
GASTEIGER

@<TRIPOS>ATOM
      1 C         140.4999  139.8433  165.2738 C.2     1  UNL1        0.2488
      2 O         140.2980  141.1178  164.5091 O.2     1  UNL1       -0.2700
      3 N         140.5278  138.5302  164.5491 N.am    1  UNL1       -0.2999
      4 H         140.6603  137.6937  165.0511 H       1  UNL1        0.1498
      5 C         142.0389  139.7177  167.3632 C.ar    1  UNL1        0.1443
      6 C         142.2130  139.7562  168.8526 C.ar    1  UNL1        0.0520
      7 C         141.0221  139.9588  169.7419 C.ar    1  UNL1        0.0553
      8 N         141.1962  139.9973  171.2313 N.pl3   1  UNL1       -0.3563
      9 C         139.6572  140.1229  169.1418 C.ar    1  UNL1        0.0709
     10 CL        138.4664  140.3255  170.0311 Cl      1  UNL1       -0.0810
     11 C         139.4832  140.0844  167.6525 C.ar    1  UNL1        0.0202
     12 C         140.6740  139.8818  166.7632 C.ar    1  UNL1        0.0882
     13 H         142.0921  139.8896  171.6251 H       1  UNL1        0.1424
     14 H         140.4147  140.1303  171.8150 H       1  UNL1        0.1424
     15 C         143.7997  138.1405  166.2852 C.3     1  UNL1        0.2525
     16 O         143.2298  139.5151  166.4739 O.3     1  UNL1       -0.4712
     17 C         140.3537  138.4917  163.0598 C.3     1  UNL1        0.1017
     18 C         138.9875  138.6461  162.4601 C.3     1  UNL1        0.0394
     19 C         138.8134  138.6076  160.9707 C.3     1  UNL1        0.0740
     20 N         140.0055  138.4145  160.0810 N.3     1  UNL1       -0.2689
     21 C         141.3718  138.2601  160.6807 C.3     1  UNL1        0.1037
     22 C         141.5459  138.2986  162.1700 C.3     1  UNL1        0.1490
     23 O         142.9121  138.1442  162.7697 O.3     1  UNL1       -0.3505
     24 C         143.8981  139.2716  162.6897 C.3     1  UNL1        0.1741
     25 C         139.8315  138.3760  158.5917 C.3     1  UNL1        0.0969
     26 C         141.0298  138.4651  157.6940 C.3     1  UNL1        0.1234
     27 N         141.5541  137.2327  157.0184 N.ar    1  UNL1       -0.3235
     28 C         142.8252  136.5131  157.3598 C.ar    1  UNL1        0.0760
     29 C         142.9560  135.3392  156.4352 C.ar    1  UNL1        0.0202
     30 C         141.7657  135.3333  155.5223 C.ar    1  UNL1        0.0202
     31 C         140.8993  136.5035  155.8827 C.ar    1  UNL1        0.0760
@<TRIPOS>BOND
     1    15    16    1
     2    16     5    1
     3     5     6   ar
     4     6     7   ar
     5     7     8    1
     6     7     9   ar
     7     9    10    1
     8     9    11   ar
     9    11    12   ar
    10    12     1    1
    11     1     2    2
    12     1     3   am
    13    17     3    1
    14    17    18    1
    15    18    19    1
    16    19    20    1
    17    20    25    1
    18    25    26    1
    19    26    27    1
    20    27    28   ar
    21    28    29   ar
    22    29    30   ar
    23    30    31   ar
    24    20    21    1
    25    21    22    1
    26    22    23    1
    27    23    24    1
    28    12     5   ar
    29    22    17    1
    30    31    27   ar
    31     8    13    1
    32     8    14    1
    33     3     4    1
@<TRIPOS>MOLECULE
*****
 31 33 0 0 0
SMALL
GASTEIGER

@<TRIPOS>ATOM
      1 C         140.4950  142.7055  165.5044 C.2     1  UNL1        0.2488
      2 O         141.8919  143.1317  165.1626 O.2     1  UNL1       -0.2700
      3 N         139.3741  142.9686  164.5431 N.am    1  UNL1       -0.2999
      4 H         138.4573  142.6888  164.7675 H       1  UNL1        0.1498
      5 C         139.8133  140.5720  166.8212 C.ar    1  UNL1        0.1443
      6 C         139.5373  139.8826  168.1244 C.ar    1  UNL1        0.0520
      7 C         139.6670  140.6372  169.4143 C.ar    1  UNL1        0.0553
      8 N         139.3910  139.9478  170.7176 N.pl3   1  UNL1       -0.3563
      9 C         140.0727  142.0812  169.4009 C.ar    1  UNL1        0.0709
     10 CL        140.2024  142.8359  170.6907 Cl      1  UNL1       -0.0810
     11 C         140.3487  142.7706  168.0976 C.ar    1  UNL1        0.0202
     12 C         140.2190  142.0160  166.8077 C.ar    1  UNL1        0.0882
     13 H         139.1247  139.0000  170.7264 H       1  UNL1        0.1424
     14 H         139.4761  140.4431  171.5642 H       1  UNL1        0.1424
     15 C         138.3263  139.5540  164.9497 C.3     1  UNL1        0.2525
     16 O         139.6836  139.8174  165.5313 O.3     1  UNL1       -0.4712
     17 C         139.6501  143.6580  163.2398 C.3     1  UNL1        0.1017
     18 C         139.5914  145.1545  163.1558 C.3     1  UNL1        0.0394
     19 C         139.8674  145.8439  161.8524 C.3     1  UNL1        0.0740
     20 N         140.2020  145.0369  160.6332 N.3     1  UNL1       -0.2689
     21 C         140.2607  143.5404  160.7172 C.3     1  UNL1        0.1037
     22 C         139.9848  142.8509  162.0205 C.3     1  UNL1        0.1490
     23 O         140.0435  141.3544  162.1045 O.3     1  UNL1       -0.3505
     24 C         141.3654  140.6634  162.2618 C.3     1  UNL1        0.1741
     25 C         140.4780  145.7263  159.3300 C.3     1  UNL1        0.0969
     26 C         140.0938  145.0688  158.0376 C.3     1  UNL1        0.1234
     27 N         140.1140  145.8559  156.7608 N.ar    1  UNL1       -0.3235
     28 C         141.0308  145.6240  155.5965 C.ar    1  UNL1        0.0760
     29 C         140.7042  146.6378  154.5402 C.ar    1  UNL1        0.0202
     30 C         139.5855  147.4962  155.0517 C.ar    1  UNL1        0.0202
     31 C         139.2207  147.0129  156.4241 C.ar    1  UNL1        0.0760
@<TRIPOS>BOND
     1    15    16    1
     2    16     5    1
     3     5     6   ar
     4     6     7   ar
     5     7     8    1
     6     7     9   ar
     7     9    10    1
     8     9    11   ar
     9    11    12   ar
    10    12     1    1
    11     1     2    2
    12     1     3   am
    13    17     3    1
    14    17    18    1
    15    18    19    1
    16    19    20    1
    17    20    25    1
    18    25    26    1
    19    26    27    1
    20    27    28   ar
    21    28    29   ar
    22    29    30   ar
    23    30    31   ar
    24    20    21    1
    25    21    22    1
    26    22    23    1
    27    23    24    1
    28    12     5   ar
    29    22    17    1
    30    31    27   ar
    31     8    13    1
    32     8    14    1
    33     3     4    1
@<TRIPOS>MOLECULE
*****
 31 33 0 0 0
SMALL
GASTEIGER

@<TRIPOS>ATOM
      1 C         141.6941  139.8638  165.4982 C.2     1  UNL1        0.2488
      2 O         142.2339  141.0575  164.7678 O.2     1  UNL1       -0.2700
      3 N         141.4825  138.5705  164.7683 N.am    1  UNL1       -0.2999
      4 H         141.1281  137.7870  165.2476 H       1  UNL1        0.1498
      5 C         139.9346  139.9569  167.4076 C.ar    1  UNL1        0.1443
      6 C         139.6064  140.0564  168.8678 C.ar    1  UNL1        0.0520
      7 C         140.7093  140.1621  169.8789 C.ar    1  UNL1        0.0553
      8 N         140.3811  140.2615  171.3392 N.pl3   1  UNL1       -0.3563
      9 C         142.1405  140.1684  169.4298 C.ar    1  UNL1        0.0709
     10 CL        143.2434  140.2741  170.4410 Cl      1  UNL1       -0.0810
     11 C         142.4687  140.0689  167.9696 C.ar    1  UNL1        0.0202
     12 C         141.3658  139.9632  166.9585 C.ar    1  UNL1        0.0882
     13 H         139.4417  140.2574  171.6340 H       1  UNL1        0.1424
     14 H         141.1049  140.3309  172.0029 H       1  UNL1        0.1424
     15 C         138.0652  138.5698  166.2539 C.3     1  UNL1        0.2525
     16 O         138.8317  139.8512  166.3964 O.3     1  UNL1       -0.4712
     17 C         141.8107  138.4710  163.3081 C.3     1  UNL1        0.1017
     18 C         143.2401  138.3624  162.8663 C.3     1  UNL1        0.0394
     19 C         143.5683  138.2629  161.4060 C.3     1  UNL1        0.0740
     20 N         142.4672  138.2720  160.3875 N.3     1  UNL1       -0.2689
     21 C         141.0378  138.3807  160.8292 C.3     1  UNL1        0.1037
     22 C         140.7096  138.4802  162.2894 C.3     1  UNL1        0.1490
     23 O         139.2802  138.5888  162.7312 O.3     1  UNL1       -0.3505
     24 C         138.1718  138.3135  161.7588 C.3     1  UNL1        0.1741
     25 C         142.7955  138.1726  158.9273 C.3     1  UNL1        0.0969
     26 C         141.6951  138.0140  157.9203 C.3     1  UNL1        0.1234
     27 N         141.7422  136.8894  156.9287 N.ar    1  UNL1       -0.3235
     28 C         140.7265  136.6130  155.8601 C.ar    1  UNL1        0.0760
     29 C         141.1698  135.3966  155.1027 C.ar    1  UNL1        0.0202
     30 C         142.4596  134.9211  155.7032 C.ar    1  UNL1        0.0202
     31 C         142.8133  135.8438  156.8317 C.ar    1  UNL1        0.0760
@<TRIPOS>BOND
     1    15    16    1
     2    16     5    1
     3     5     6   ar
     4     6     7   ar
     5     7     8    1
     6     7     9   ar
     7     9    10    1
     8     9    11   ar
     9    11    12   ar
    10    12     1    1
    11     1     2    2
    12     1     3   am
    13    17     3    1
    14    17    18    1
    15    18    19    1
    16    19    20    1
    17    20    25    1
    18    25    26    1
    19    26    27    1
    20    27    28   ar
    21    28    29   ar
    22    29    30   ar
    23    30    31   ar
    24    20    21    1
    25    21    22    1
    26    22    23    1
    27    23    24    1
    28    12     5   ar
    29    22    17    1
    30    31    27   ar
    31     8    13    1
    32     8    14    1
    33     3     4    1
@<TRIPOS>MOLECULE
*****
 31 33 0 0 0
SMALL
GASTEIGER

@<TRIPOS>ATOM
      1 C         139.7558  141.0003  164.8357 C.2     1  UNL1        0.2488
      2 O         141.0281  141.1189  164.0501 O.2     1  UNL1       -0.2700
      3 N         138.4449  140.8506  164.1222 N.am    1  UNL1       -0.2999
      4 H         137.6098  140.7727  164.6378 H       1  UNL1        0.1498
      5 C         139.1737  139.9173  167.1244 C.ar    1  UNL1        0.1443
      6 C         139.2122  139.9484  168.6236 C.ar    1  UNL1        0.0520
      7 C         139.8715  141.0938  169.3333 C.ar    1  UNL1        0.0553
      8 N         139.9100  141.1249  170.8325 N.pl3   1  UNL1       -0.3563
      9 C         140.4922  142.2079  168.5438 C.ar    1  UNL1        0.0709
     10 CL        141.1514  143.3533  169.2534 Cl      1  UNL1       -0.0810
     11 C         140.4536  142.1768  167.0446 C.ar    1  UNL1        0.0202
     12 C         139.7943  141.0314  166.3350 C.ar    1  UNL1        0.0882
     13 H         139.5027  140.3936  171.3507 H       1  UNL1        0.1424
     14 H         140.3427  141.8766  171.2983 H       1  UNL1        0.1424
     15 C         137.3943  138.0248  167.0759 C.3     1  UNL1        0.2525
     16 O         138.5144  138.7719  166.4148 O.3     1  UNL1       -0.4712
     17 C         138.4063  140.8194  162.6230 C.3     1  UNL1        0.1017
     18 C         138.3899  142.1026  161.8464 C.3     1  UNL1        0.0394
     19 C         138.3513  142.0715  160.3471 C.3     1  UNL1        0.0740
     20 N         138.3291  140.7571  159.6246 N.3     1  UNL1       -0.2689
     21 C         138.3455  139.4740  160.4013 C.3     1  UNL1        0.1037
     22 C         138.3841  139.5051  161.9004 C.3     1  UNL1        0.1490
     23 O         138.4004  138.2219  162.6771 O.3     1  UNL1       -0.3505
     24 C         139.7068  137.6147  163.0948 C.3     1  UNL1        0.1741
     25 C         138.2905  140.7260  158.1255 C.3     1  UNL1        0.0969
     26 C         137.1967  141.4404  157.3884 C.3     1  UNL1        0.1234
     27 N         136.4506  140.7407  156.2912 N.ar    1  UNL1       -0.3235
     28 C         137.0647  140.0178  155.1292 C.ar    1  UNL1        0.0760
     29 C         135.9530  139.4715  154.2832 C.ar    1  UNL1        0.0202
     30 C         134.6518  139.8567  154.9224 C.ar    1  UNL1        0.0202
     31 C         134.9593  140.6411  156.1634 C.ar    1  UNL1        0.0760
@<TRIPOS>BOND
     1    15    16    1
     2    16     5    1
     3     5     6   ar
     4     6     7   ar
     5     7     8    1
     6     7     9   ar
     7     9    10    1
     8     9    11   ar
     9    11    12   ar
    10    12     1    1
    11     1     2    2
    12     1     3   am
    13    17     3    1
    14    17    18    1
    15    18    19    1
    16    19    20    1
    17    20    25    1
    18    25    26    1
    19    26    27    1
    20    27    28   ar
    21    28    29   ar
    22    29    30   ar
    23    30    31   ar
    24    20    21    1
    25    21    22    1
    26    22    23    1
    27    23    24    1
    28    12     5   ar
    29    22    17    1
    30    31    27   ar
    31     8    13    1
    32     8    14    1
    33     3     4    1
@<TRIPOS>MOLECULE
*****
 31 33 0 0 0
SMALL
GASTEIGER

@<TRIPOS>ATOM
      1 C         141.9482  140.6028  165.5756 C.2     1  UNL1        0.2488
      2 O         143.0648  139.7656  165.0257 O.2     1  UNL1       -0.2700
      3 N         141.3288  141.6758  164.7301 N.am    1  UNL1       -0.2999
      4 H         140.5959  142.2252  165.0910 H       1  UNL1        0.1498
      5 C         139.9772  140.3530  167.2498 C.ar    1  UNL1        0.1443
      6 C         139.4801  140.1172  168.6452 C.ar    1  UNL1        0.0520
      7 C         140.4568  139.8952  169.7619 C.ar    1  UNL1        0.0553
      8 N         139.9596  139.6594  171.1573 N.pl3   1  UNL1       -0.3563
      9 C         141.9306  139.9091  169.4831 C.ar    1  UNL1        0.0709
     10 CL        142.9072  139.6871  170.5997 Cl      1  UNL1       -0.0810
     11 C         142.4277  140.1449  168.0877 C.ar    1  UNL1        0.0202
     12 C         141.4510  140.3669  166.9711 C.ar    1  UNL1        0.0882
     13 H         138.9923  139.6502  171.3403 H       1  UNL1        0.1424
     14 H         140.6006  139.5137  171.8902 H       1  UNL1        0.1424
     15 C         138.3201  139.4042  165.4882 C.3     1  UNL1        0.2525
     16 O         139.0006  140.5750  166.1332 O.3     1  UNL1       -0.4712
     17 C         141.8259  141.9117  163.3347 C.3     1  UNL1        0.1017
     18 C         141.3140  141.0696  162.2038 C.3     1  UNL1        0.0394
     19 C         141.8112  141.3055  160.8083 C.3     1  UNL1        0.0740
     20 N         142.8202  142.3835  160.5438 N.3     1  UNL1       -0.2689
     21 C         143.3320  143.2255  161.6747 C.3     1  UNL1        0.1037
     22 C         142.8349  142.9897  163.0701 C.3     1  UNL1        0.1490
     23 O         143.3467  143.8317  164.2010 O.3     1  UNL1       -0.3505
     24 C         144.4912  143.3454  165.0399 C.3     1  UNL1        0.1741
     25 C         143.3173  142.6194  159.1484 C.3     1  UNL1        0.0969
     26 C         144.7870  142.5571  158.8553 C.3     1  UNL1        0.1234
     27 N         145.2744  141.8916  157.6023 N.ar    1  UNL1       -0.3235
     28 C         146.4366  142.3343  156.7637 C.ar    1  UNL1        0.0760
     29 C         146.5655  141.3830  155.6111 C.ar    1  UNL1        0.0202
     30 C         145.4829  140.3524  155.7374 C.ar    1  UNL1        0.0202
     31 C         144.6850  140.6668  156.9680 C.ar    1  UNL1        0.0760
@<TRIPOS>BOND
     1    15    16    1
     2    16     5    1
     3     5     6   ar
     4     6     7   ar
     5     7     8    1
     6     7     9   ar
     7     9    10    1
     8     9    11   ar
     9    11    12   ar
    10    12     1    1
    11     1     2    2
    12     1     3   am
    13    17     3    1
    14    17    18    1
    15    18    19    1
    16    19    20    1
    17    20    25    1
    18    25    26    1
    19    26    27    1
    20    27    28   ar
    21    28    29   ar
    22    29    30   ar
    23    30    31   ar
    24    20    21    1
    25    21    22    1
    26    22    23    1
    27    23    24    1
    28    12     5   ar
    29    22    17    1
    30    31    27   ar
    31     8    13    1
    32     8    14    1
    33     3     4    1
@<TRIPOS>MOLECULE
*****
 31 33 0 0 0
SMALL
GASTEIGER

@<TRIPOS>ATOM
      1 C         142.0158  139.3837  165.6948 C.2     1  UNL1        0.2488
      2 O         142.7975  138.1539  165.3392 O.2     1  UNL1       -0.2700
      3 N         141.6535  140.3761  164.6300 N.am    1  UNL1       -0.2999
      4 H         141.1404  141.1833  164.8634 H       1  UNL1        0.1498
      5 C         140.1689  139.9588  167.4293 C.ar    1  UNL1        0.1443
      6 C         139.7495  140.1962  168.8498 C.ar    1  UNL1        0.0520
      7 C         140.7574  140.0958  169.9562 C.ar    1  UNL1        0.0553
      8 N         140.3379  140.3331  171.3767 N.pl3   1  UNL1       -0.3563
      9 C         142.1847  139.7580  169.6421 C.ar    1  UNL1        0.0709
     10 CL        143.1926  139.6576  170.7485 Cl      1  UNL1       -0.0810
     11 C         142.6041  139.5206  168.2217 C.ar    1  UNL1        0.0202
     12 C         141.5963  139.6210  167.1153 C.ar    1  UNL1        0.0882
     13 H         139.4011  140.5548  171.5828 H       1  UNL1        0.1424
     14 H         140.9994  140.2673  172.1028 H       1  UNL1        0.1424
     15 C         138.0959  139.0127  166.1815 C.3     1  UNL1        0.2525
     16 O         139.1611  140.0592  166.3229 O.3     1  UNL1       -0.4712
     17 C         142.0729  140.1388  163.2095 C.3     1  UNL1        0.1017
     18 C         143.4368  140.5612  162.7497 C.3     1  UNL1        0.0394
     19 C         143.8562  140.3238  161.3292 C.3     1  UNL1        0.0740
     20 N         142.9118  139.6641  160.3686 N.3     1  UNL1       -0.2689
     21 C         141.5480  139.2417  160.8284 C.3     1  UNL1        0.1037
     22 C         141.1285  139.4790  162.2489 C.3     1  UNL1        0.1490
     23 O         139.7647  139.0566  162.7087 O.3     1  UNL1       -0.3505
     24 C         139.5120  137.6293  163.0946 C.3     1  UNL1        0.1741
     25 C         143.3313  139.4268  158.9481 C.3     1  UNL1        0.0969
     26 C         143.2732  140.5466  157.9519 C.3     1  UNL1        0.1234
     27 N         144.5328  141.2478  157.5374 N.ar    1  UNL1       -0.3235
     28 C         145.3892  140.8977  156.3567 C.ar    1  UNL1        0.0760
     29 C         146.5428  141.8558  156.3205 C.ar    1  UNL1        0.0202
     30 C         146.3994  142.7981  157.4788 C.ar    1  UNL1        0.0202
     31 C         145.1571  142.4223  158.2309 C.ar    1  UNL1        0.0760
@<TRIPOS>BOND
     1    15    16    1
     2    16     5    1
     3     5     6   ar
     4     6     7   ar
     5     7     8    1
     6     7     9   ar
     7     9    10    1
     8     9    11   ar
     9    11    12   ar
    10    12     1    1
    11     1     2    2
    12     1     3   am
    13    17     3    1
    14    17    18    1
    15    18    19    1
    16    19    20    1
    17    20    25    1
    18    25    26    1
    19    26    27    1
    20    27    28   ar
    21    28    29   ar
    22    29    30   ar
    23    30    31   ar
    24    20    21    1
    25    21    22    1
    26    22    23    1
    27    23    24    1
    28    12     5   ar
    29    22    17    1
    30    31    27   ar
    31     8    13    1
    32     8    14    1
    33     3     4    1
@<TRIPOS>MOLECULE
*****
 31 33 0 0 0
SMALL
GASTEIGER

@<TRIPOS>ATOM
      1 C         139.9583  141.6011  165.4094 C.2     1  UNL1        0.2488
      2 O         141.1807  141.9813  164.6277 O.2     1  UNL1       -0.2700
      3 N         138.6867  141.2565  164.6924 N.am    1  UNL1       -0.2999
      4 H         137.8844  141.0069  165.2055 H       1  UNL1        0.1498
      5 C         139.6379  140.3102  167.6412 C.ar    1  UNL1        0.1443
      6 C         139.6871  140.2747  169.1400 C.ar    1  UNL1        0.0520
      7 C         140.1060  141.4946  169.9057 C.ar    1  UNL1        0.0553
      8 N         140.1553  141.4590  171.4045 N.pl3   1  UNL1       -0.3563
      9 C         140.4757  142.7499  169.1727 C.ar    1  UNL1        0.0709
     10 CL        140.8947  143.9698  169.9385 Cl      1  UNL1       -0.0810
     11 C         140.4265  142.7854  167.6740 C.ar    1  UNL1        0.0202
     12 C         140.0076  141.5656  166.9082 C.ar    1  UNL1        0.0882
     13 H         139.9126  140.6350  171.8856 H       1  UNL1        0.1424
     14 H         140.4302  142.2597  171.9072 H       1  UNL1        0.1424
     15 C         137.7990  138.6119  166.9452 C.3     1  UNL1        0.2525
     16 O         139.2190  139.0903  166.8755 O.3     1  UNL1       -0.4712
     17 C         138.6374  141.2920  163.1937 C.3     1  UNL1        0.1017
     18 C         139.0549  140.0891  162.4008 C.3     1  UNL1        0.0394
     19 C         139.0056  140.1246  160.9020 C.3     1  UNL1        0.0740
     20 N         138.5388  141.3631  160.1961 N.3     1  UNL1       -0.2689
     21 C         138.1213  142.5660  160.9890 C.3     1  UNL1        0.1037
     22 C         138.1706  142.5305  162.4877 C.3     1  UNL1        0.1490
     23 O         137.7530  143.7334  163.2806 O.3     1  UNL1       -0.3505
     24 C         138.7836  144.7171  163.7497 C.3     1  UNL1        0.1741
     25 C         138.4895  141.3986  158.6974 C.3     1  UNL1        0.0969
     26 C         138.3004  142.7045  157.9839 C.3     1  UNL1        0.1234
     27 N         139.4838  143.5803  157.6965 N.ar    1  UNL1       -0.3235
     28 C         140.5770  143.9302  158.6621 C.ar    1  UNL1        0.0760
     29 C         141.5506  144.8261  157.9553 C.ar    1  UNL1        0.0202
     30 C         141.0591  145.0299  156.5528 C.ar    1  UNL1        0.0202
     31 C         139.7818  144.2599  156.3929 C.ar    1  UNL1        0.0760
@<TRIPOS>BOND
     1    15    16    1
     2    16     5    1
     3     5     6   ar
     4     6     7   ar
     5     7     8    1
     6     7     9   ar
     7     9    10    1
     8     9    11   ar
     9    11    12   ar
    10    12     1    1
    11     1     2    2
    12     1     3   am
    13    17     3    1
    14    17    18    1
    15    18    19    1
    16    19    20    1
    17    20    25    1
    18    25    26    1
    19    26    27    1
    20    27    28   ar
    21    28    29   ar
    22    29    30   ar
    23    30    31   ar
    24    20    21    1
    25    21    22    1
    26    22    23    1
    27    23    24    1
    28    12     5   ar
    29    22    17    1
    30    31    27   ar
    31     8    13    1
    32     8    14    1
    33     3     4    1
