@<TRIPOS>MOLECULE
*****
 25 28 0 0 0
SMALL
GASTEIGER

@<TRIPOS>ATOM
      1 C         139.9860  138.0542  161.5855 C.3     1  UNL1        0.0497
      2 C         141.0546  138.4932  162.5422 C.ar    1  UNL1        0.0347
      3 C         142.5326  138.3208  162.3528 C.ar    1  UNL1        0.0070
      4 C         143.2243  138.9027  163.5499 C.ar    1  UNL1        0.0154
      5 C         142.1738  139.4346  164.4792 C.ar    1  UNL1        0.0593
      6 N         140.8329  139.1815  163.8564 N.ar    1  UNL1       -0.3328
      7 C         142.4209  140.1024  165.7994 C.ar    1  UNL1        0.0158
      8 C         142.3654  139.3021  167.0668 C.ar    1  UNL1        0.0011
      9 C         142.6124  139.9699  168.3870 C.ar    1  UNL1       -0.0042
     10 C         142.9150  141.4380  168.4398 C.ar    1  UNL1       -0.0225
     11 C         142.9706  142.2384  167.1725 C.ar    1  UNL1       -0.0042
     12 C         142.7235  141.5707  165.8523 C.ar    1  UNL1        0.0011
     13 C         143.1621  142.1058  169.7600 C.3     1  UNL1        0.0224
     14 C         142.0739  142.1545  170.7912 C.3     1  UNL1        0.0047
     15 C         144.4974  142.7249  170.0491 C.3     1  UNL1        0.0047
     16 C         139.5036  139.5518  164.4445 C.3     1  UNL1        0.0853
     17 C         138.2491  140.3733  164.4051 C.3     1  UNL1        0.0245
     18 C         138.4556  139.3717  165.5025 C.3     1  UNL1        0.0245
     19 C         143.2014  137.6793  161.1734 C.3     1  UNL1        0.1004
     20 N         143.2695  138.4059  159.8629 N.3     1  UNL1       -0.2646
     21 C         142.7285  137.7634  158.6201 C.3     1  UNL1        0.1049
     22 C         142.7966  138.4901  157.3097 C.3     1  UNL1        0.1595
     23 O         143.4057  139.8592  157.2420 O.3     1  UNL1       -0.3508
     24 C         143.9467  140.5016  158.4847 C.3     1  UNL1        0.1595
     25 C         143.8786  139.7750  159.7952 C.3     1  UNL1        0.1049
@<TRIPOS>BOND
     1     1     2    1
     2     2     3   ar
     3     3    19    1
     4    19    20    1
     5    20    21    1
     6    21    22    1
     7    22    23    1
     8    23    24    1
     9    24    25    1
    10     3     4   ar
    11     4     5   ar
    12     5     7    1
    13     7     8   ar
    14     8     9   ar
    15     9    10   ar
    16    10    13    1
    17    13    14    1
    18    13    15    1
    19    10    11   ar
    20    11    12   ar
    21     5     6   ar
    22     6    16    1
    23    16    17    1
    24    17    18    1
    25     6     2   ar
    26    18    16    1
    27    25    20    1
    28    12     7   ar
@<TRIPOS>MOLECULE
*****
 25 28 0 0 0
SMALL
GASTEIGER

@<TRIPOS>ATOM
      1 C         141.6712  137.4759  162.1609 C.3     1  UNL1        0.0497
      2 C         140.8549  138.3321  163.0832 C.ar    1  UNL1        0.0347
      3 C         139.4155  138.7088  162.8934 C.ar    1  UNL1        0.0070
      4 C         139.0057  139.5714  164.0502 C.ar    1  UNL1        0.0154
      5 C         140.1919  139.7278  164.9549 C.ar    1  UNL1        0.0593
      6 N         141.3348  138.9618  164.3572 N.ar    1  UNL1       -0.3328
      7 C         140.2287  140.5123  166.2328 C.ar    1  UNL1        0.0158
      8 C         139.7760  139.8791  167.5149 C.ar    1  UNL1        0.0011
      9 C         139.8128  140.6636  168.7929 C.ar    1  UNL1       -0.0042
     10 C         140.3024  142.0814  168.7887 C.ar    1  UNL1       -0.0225
     11 C         140.7551  142.7147  167.5065 C.ar    1  UNL1       -0.0042
     12 C         140.7183  141.9302  166.2286 C.ar    1  UNL1        0.0011
     13 C         140.3392  142.8659  170.0666 C.3     1  UNL1        0.0224
     14 C         140.2143  144.3603  170.0331 C.3     1  UNL1        0.0047
     15 C         140.5009  142.1561  171.3781 C.3     1  UNL1        0.0047
     16 C         142.7152  138.8459  164.9327 C.3     1  UNL1        0.0853
     17 C         143.6362  138.3572  166.0110 C.3     1  UNL1        0.0245
     18 C         144.1850  139.1339  164.8510 C.3     1  UNL1        0.0245
     19 C         138.5396  138.2956  161.7480 C.3     1  UNL1        0.1004
     20 N         138.6733  138.9763  160.4180 N.3     1  UNL1       -0.2646
     21 C         139.6409  138.4498  159.3999 C.3     1  UNL1        0.1049
     22 C         139.7745  139.1306  158.0700 C.3     1  UNL1        0.1595
     23 O         138.9405  140.3377  157.7582 O.3     1  UNL1       -0.3508
     24 C         137.9729  140.8641  158.7762 C.3     1  UNL1        0.1595
     25 C         137.8393  140.1834  160.1061 C.3     1  UNL1        0.1049
@<TRIPOS>BOND
     1     1     2    1
     2     2     3   ar
     3     3    19    1
     4    19    20    1
     5    20    21    1
     6    21    22    1
     7    22    23    1
     8    23    24    1
     9    24    25    1
    10     3     4   ar
    11     4     5   ar
    12     5     7    1
    13     7     8   ar
    14     8     9   ar
    15     9    10   ar
    16    10    13    1
    17    13    14    1
    18    13    15    1
    19    10    11   ar
    20    11    12   ar
    21     5     6   ar
    22     6    16    1
    23    16    17    1
    24    17    18    1
    25     6     2   ar
    26    18    16    1
    27    25    20    1
    28    12     7   ar
@<TRIPOS>MOLECULE
*****
 25 28 0 0 0
SMALL
GASTEIGER

@<TRIPOS>ATOM
      1 C         138.1136  141.2793  160.7919 C.3     1  UNL1        0.0497
      2 C         138.6790  140.7295  162.0678 C.ar    1  UNL1        0.0347
      3 C         139.3021  139.3766  162.2453 C.ar    1  UNL1        0.0070
      4 C         139.7287  139.2470  163.6775 C.ar    1  UNL1        0.0154
      5 C         139.3692  140.5198  164.3852 C.ar    1  UNL1        0.0593
      6 N         138.7204  141.4360  163.3904 N.ar    1  UNL1       -0.3328
      7 C         139.6153  140.8231  165.8335 C.ar    1  UNL1        0.0158
      8 C         140.3248  142.0851  166.2254 C.ar    1  UNL1        0.0011
      9 C         140.5708  142.3884  167.6737 C.ar    1  UNL1       -0.0042
     10 C         140.1074  141.4297  168.7300 C.ar    1  UNL1       -0.0225
     11 C         139.3979  140.1675  168.3381 C.ar    1  UNL1       -0.0042
     12 C         139.1519  139.8642  166.8898 C.ar    1  UNL1        0.0011
     13 C         140.3535  141.7330  170.1782 C.3     1  UNL1        0.0224
     14 C         139.7803  142.9757  170.7921 C.3     1  UNL1        0.0047
     15 C         141.1728  140.7935  171.0126 C.3     1  UNL1        0.0047
     16 C         138.2038  142.8163  163.6691 C.3     1  UNL1        0.0853
     17 C         137.7669  144.1640  163.1762 C.3     1  UNL1        0.0245
     18 C         137.7459  143.8595  164.6449 C.3     1  UNL1        0.0245
     19 C         139.4693  138.3361  161.1779 C.3     1  UNL1        0.1004
     20 N         140.7185  138.3070  160.3479 N.3     1  UNL1       -0.2646
     21 C         140.6446  138.5652  158.8722 C.3     1  UNL1        0.1049
     22 C         141.8937  138.5361  158.0422 C.3     1  UNL1        0.1595
     23 O         143.2167  138.2489  158.6880 O.3     1  UNL1       -0.3508
     24 C         143.2906  137.9907  160.1637 C.3     1  UNL1        0.1595
     25 C         142.0415  138.0198  160.9937 C.3     1  UNL1        0.1049
@<TRIPOS>BOND
     1     1     2    1
     2     2     3   ar
     3     3    19    1
     4    19    20    1
     5    20    21    1
     6    21    22    1
     7    22    23    1
     8    23    24    1
     9    24    25    1
    10     3     4   ar
    11     4     5   ar
    12     5     7    1
    13     7     8   ar
    14     8     9   ar
    15     9    10   ar
    16    10    13    1
    17    13    14    1
    18    13    15    1
    19    10    11   ar
    20    11    12   ar
    21     5     6   ar
    22     6    16    1
    23    16    17    1
    24    17    18    1
    25     6     2   ar
    26    18    16    1
    27    25    20    1
    28    12     7   ar
@<TRIPOS>MOLECULE
*****
 25 28 0 0 0
SMALL
GASTEIGER

@<TRIPOS>ATOM
      1 C         137.8313  139.7029  161.7925 C.3     1  UNL1        0.0497
      2 C         138.5764  140.5843  162.7506 C.ar    1  UNL1        0.0347
      3 C         138.7294  142.0726  162.6430 C.ar    1  UNL1        0.0070
      4 C         139.5469  142.5402  163.8104 C.ar    1  UNL1        0.0154
      5 C         139.8993  141.3409  164.6396 C.ar    1  UNL1        0.0593
      6 N         139.2995  140.1320  163.9845 N.ar    1  UNL1       -0.3328
      7 C         140.7093  141.3490  165.9021 C.ar    1  UNL1        0.0158
      8 C         140.1223  140.8110  167.1732 C.ar    1  UNL1        0.0011
      9 C         140.9322  140.8191  168.4357 C.ar    1  UNL1       -0.0042
     10 C         142.3292  141.3651  168.4270 C.ar    1  UNL1       -0.0225
     11 C         142.9163  141.9031  167.1558 C.ar    1  UNL1       -0.0042
     12 C         142.1064  141.8950  165.8934 C.ar    1  UNL1        0.0011
     13 C         143.1392  141.3732  169.6895 C.3     1  UNL1        0.0224
     14 C         144.1076  142.4881  169.9522 C.3     1  UNL1        0.0047
     15 C         142.9807  140.2663  170.6893 C.3     1  UNL1        0.0047
     16 C         139.4044  138.7191  164.4770 C.3     1  UNL1        0.0853
     17 C         140.1912  137.4509  164.6277 C.3     1  UNL1        0.0245
     18 C         138.7992  137.5399  165.1794 C.3     1  UNL1        0.0245
     19 C         138.1640  142.9408  161.5583 C.3     1  UNL1        0.1004
     20 N         139.0737  143.5429  160.5288 N.3     1  UNL1       -0.2646
     21 C         139.9440  144.7105  160.8880 C.3     1  UNL1        0.1049
     22 C         140.8537  145.3125  159.8584 C.3     1  UNL1        0.1595
     23 O         140.8931  144.7469  158.4697 O.3     1  UNL1       -0.3508
     24 C         140.0228  143.5792  158.1106 C.3     1  UNL1        0.1595
     25 C         139.1131  142.9772  159.1401 C.3     1  UNL1        0.1049
@<TRIPOS>BOND
     1     1     2    1
     2     2     3   ar
     3     3    19    1
     4    19    20    1
     5    20    21    1
     6    21    22    1
     7    22    23    1
     8    23    24    1
     9    24    25    1
    10     3     4   ar
    11     4     5   ar
    12     5     7    1
    13     7     8   ar
    14     8     9   ar
    15     9    10   ar
    16    10    13    1
    17    13    14    1
    18    13    15    1
    19    10    11   ar
    20    11    12   ar
    21     5     6   ar
    22     6    16    1
    23    16    17    1
    24    17    18    1
    25     6     2   ar
    26    18    16    1
    27    25    20    1
    28    12     7   ar
@<TRIPOS>MOLECULE
*****
 25 28 0 0 0
SMALL
GASTEIGER

@<TRIPOS>ATOM
      1 C         138.0782  138.3771  162.1825 C.3     1  UNL1        0.0497
      2 C         139.0814  139.2716  162.8484 C.ar    1  UNL1        0.0347
      3 C         140.0072  140.2274  162.1559 C.ar    1  UNL1        0.0070
      4 C         140.8329  140.9138  163.2033 C.ar    1  UNL1        0.0154
      5 C         140.4175  140.3824  164.5430 C.ar    1  UNL1        0.0593
      6 N         139.3350  139.3674  164.3237 N.ar    1  UNL1       -0.3328
      7 C         140.9850  140.7937  165.8692 C.ar    1  UNL1        0.0158
      8 C         140.5438  142.0769  166.5083 C.ar    1  UNL1        0.0011
      9 C         141.1112  142.4882  167.8345 C.ar    1  UNL1       -0.0042
     10 C         142.1198  141.6162  168.5217 C.ar    1  UNL1       -0.0225
     11 C         142.5611  140.3329  167.8826 C.ar    1  UNL1       -0.0042
     12 C         141.9936  139.9216  166.5564 C.ar    1  UNL1        0.0011
     13 C         142.6873  142.0275  169.8479 C.3     1  UNL1        0.0224
     14 C         144.0955  142.5362  169.9358 C.3     1  UNL1        0.0047
     15 C         141.8464  141.9299  171.0862 C.3     1  UNL1        0.0047
     16 C         138.6299  138.5856  165.3921 C.3     1  UNL1        0.0853
     17 C         138.1665  137.2720  165.9488 C.3     1  UNL1        0.0245
     18 C         137.8720  138.5448  166.6859 C.3     1  UNL1        0.0245
     19 C         140.0923  140.4564  160.6760 C.3     1  UNL1        0.1004
     20 N         141.2500  139.9057  159.8971 N.3     1  UNL1       -0.2646
     21 C         141.1118  138.6014  159.1695 C.3     1  UNL1        0.1049
     22 C         142.2695  138.0508  158.3907 C.3     1  UNL1        0.1595
     23 O         143.5654  138.8046  158.3395 O.3     1  UNL1       -0.3508
     24 C         143.7035  140.1089  159.0672 C.3     1  UNL1        0.1595
     25 C         142.5458  140.6595  159.8460 C.3     1  UNL1        0.1049
@<TRIPOS>BOND
     1     1     2    1
     2     2     3   ar
     3     3    19    1
     4    19    20    1
     5    20    21    1
     6    21    22    1
     7    22    23    1
     8    23    24    1
     9    24    25    1
    10     3     4   ar
    11     4     5   ar
    12     5     7    1
    13     7     8   ar
    14     8     9   ar
    15     9    10   ar
    16    10    13    1
    17    13    14    1
    18    13    15    1
    19    10    11   ar
    20    11    12   ar
    21     5     6   ar
    22     6    16    1
    23    16    17    1
    24    17    18    1
    25     6     2   ar
    26    18    16    1
    27    25    20    1
    28    12     7   ar
@<TRIPOS>MOLECULE
*****
 25 28 0 0 0
SMALL
GASTEIGER

@<TRIPOS>ATOM
      1 C         138.4391  142.6561  160.8314 C.3     1  UNL1        0.0497
      2 C         139.3564  143.1269  161.9209 C.ar    1  UNL1        0.0347
      3 C         140.1666  144.3891  161.9072 C.ar    1  UNL1        0.0070
      4 C         140.9354  144.4604  163.1933 C.ar    1  UNL1        0.0154
      5 C         140.6002  143.2423  164.0018 C.ar    1  UNL1        0.0593
      6 N         139.6243  142.4181  163.2154 N.ar    1  UNL1       -0.3328
      7 C         141.1453  142.9071  165.3585 C.ar    1  UNL1        0.0158
      8 C         140.2475  142.9511  166.5593 C.ar    1  UNL1        0.0011
      9 C         140.7925  142.6160  167.9160 C.ar    1  UNL1       -0.0042
     10 C         142.2353  142.2368  168.0719 C.ar    1  UNL1       -0.0225
     11 C         143.1332  142.1928  166.8711 C.ar    1  UNL1       -0.0042
     12 C         142.5882  142.5279  165.5144 C.ar    1  UNL1        0.0011
     13 C         142.7803  141.9017  169.4285 C.3     1  UNL1        0.0224
     14 C         142.0238  140.9742  170.3325 C.3     1  UNL1        0.0047
     15 C         144.0820  142.4940  169.8812 C.3     1  UNL1        0.0047
     16 C         139.0221  141.1140  163.6477 C.3     1  UNL1        0.0853
     17 C         138.2045  140.3209  164.6236 C.3     1  UNL1        0.0245
     18 C         138.7966  139.6486  163.4205 C.3     1  UNL1        0.0245
     19 C         140.2020  145.4021  160.8016 C.3     1  UNL1        0.1004
     20 N         140.9277  145.0944  159.5253 N.3     1  UNL1       -0.2646
     21 C         142.0382  144.0862  159.5183 C.3     1  UNL1        0.1049
     22 C         142.7639  143.7786  158.2421 C.3     1  UNL1        0.1595
     23 O         142.3789  144.4792  156.9729 O.3     1  UNL1       -0.3508
     24 C         141.2683  145.4874  156.9798 C.3     1  UNL1        0.1595
     25 C         140.5427  145.7950  158.2560 C.3     1  UNL1        0.1049
@<TRIPOS>BOND
     1     1     2    1
     2     2     3   ar
     3     3    19    1
     4    19    20    1
     5    20    21    1
     6    21    22    1
     7    22    23    1
     8    23    24    1
     9    24    25    1
    10     3     4   ar
    11     4     5   ar
    12     5     7    1
    13     7     8   ar
    14     8     9   ar
    15     9    10   ar
    16    10    13    1
    17    13    14    1
    18    13    15    1
    19    10    11   ar
    20    11    12   ar
    21     5     6   ar
    22     6    16    1
    23    16    17    1
    24    17    18    1
    25     6     2   ar
    26    18    16    1
    27    25    20    1
    28    12     7   ar
@<TRIPOS>MOLECULE
*****
 25 28 0 0 0
SMALL
GASTEIGER

@<TRIPOS>ATOM
      1 C         140.7636  144.4722  161.0048 C.3     1  UNL1        0.0497
      2 C         141.2408  143.6679  162.1776 C.ar    1  UNL1        0.0347
      3 C         142.6046  143.0637  162.3359 C.ar    1  UNL1        0.0070
      4 C         142.6447  142.3490  163.6541 C.ar    1  UNL1        0.0154
      5 C         141.3057  142.5114  164.3104 C.ar    1  UNL1        0.0593
      6 N         140.4381  143.3266  163.3978 N.ar    1  UNL1       -0.3328
      7 C         140.9047  141.9562  165.6449 C.ar    1  UNL1        0.0158
      8 C         140.1818  140.6444  165.7250 C.ar    1  UNL1        0.0011
      9 C         139.7808  140.0892  167.0595 C.ar    1  UNL1       -0.0042
     10 C         140.1028  140.8458  168.3140 C.ar    1  UNL1       -0.0225
     11 C         140.8257  142.1576  168.2340 C.ar    1  UNL1       -0.0042
     12 C         141.2267  142.7128  166.8995 C.ar    1  UNL1        0.0011
     13 C         139.7018  140.2906  169.6485 C.3     1  UNL1        0.0224
     14 C         140.7528  139.8544  170.6258 C.3     1  UNL1        0.0047
     15 C         138.2498  140.1716  170.0057 C.3     1  UNL1        0.0047
     16 C         139.0171  143.7297  163.6596 C.3     1  UNL1        0.0853
     17 C         137.8777  143.9265  164.6150 C.3     1  UNL1        0.0245
     18 C         137.6955  144.2310  163.1576 C.3     1  UNL1        0.0245
     19 C         143.7305  143.1577  161.3494 C.3     1  UNL1        0.1004
     20 N         143.9114  142.0880  160.3135 N.3     1  UNL1       -0.2646
     21 C         143.6160  140.6572  160.6533 C.3     1  UNL1        0.1049
     22 C         143.7969  139.5876  159.6174 C.3     1  UNL1        0.1595
     23 O         144.2731  139.9488  158.2417 O.3     1  UNL1       -0.3508
     24 C         144.5684  141.3795  157.9018 C.3     1  UNL1        0.1595
     25 C         144.3876  142.4492  158.9377 C.3     1  UNL1        0.1049
@<TRIPOS>BOND
     1     1     2    1
     2     2     3   ar
     3     3    19    1
     4    19    20    1
     5    20    21    1
     6    21    22    1
     7    22    23    1
     8    23    24    1
     9    24    25    1
    10     3     4   ar
    11     4     5   ar
    12     5     7    1
    13     7     8   ar
    14     8     9   ar
    15     9    10   ar
    16    10    13    1
    17    13    14    1
    18    13    15    1
    19    10    11   ar
    20    11    12   ar
    21     5     6   ar
    22     6    16    1
    23    16    17    1
    24    17    18    1
    25     6     2   ar
    26    18    16    1
    27    25    20    1
    28    12     7   ar
@<TRIPOS>MOLECULE
*****
 25 28 0 0 0
SMALL
GASTEIGER

@<TRIPOS>ATOM
      1 C         139.5455  138.7303  160.7844 C.3     1  UNL1        0.0497
      2 C         139.9848  139.8694  161.6557 C.ar    1  UNL1        0.0347
      3 C         140.1636  141.2939  161.2211 C.ar    1  UNL1        0.0070
      4 C         140.6118  142.0889  162.4116 C.ar    1  UNL1        0.0154
      5 C         140.7099  141.1559  163.5819 C.ar    1  UNL1        0.0593
      6 N         140.3223  139.7841  163.1148 N.ar    1  UNL1       -0.3328
      7 C         141.1229  141.5290  164.9748 C.ar    1  UNL1        0.0158
      8 C         140.0892  141.6611  166.0536 C.ar    1  UNL1        0.0011
      9 C         140.5023  142.0342  167.4465 C.ar    1  UNL1       -0.0042
     10 C         141.9490  142.2753  167.7605 C.ar    1  UNL1       -0.0225
     11 C         142.9828  142.1432  166.6817 C.ar    1  UNL1       -0.0042
     12 C         142.5697  141.7700  165.2889 C.ar    1  UNL1        0.0011
     13 C         142.3621  142.6484  169.1534 C.3     1  UNL1        0.0224
     14 C         141.4171  143.4057  170.0384 C.3     1  UNL1        0.0047
     15 C         143.7202  142.2641  169.6613 C.3     1  UNL1        0.0047
     16 C         140.2799  138.5446  163.9586 C.3     1  UNL1        0.0853
     17 C         139.5616  137.6631  164.9368 C.3     1  UNL1        0.0245
     18 C         140.9246  137.2794  164.4418 C.3     1  UNL1        0.0245
     19 C         139.9346  141.8292  159.8388 C.3     1  UNL1        0.1004
     20 N         140.8192  142.9135  159.2983 N.3     1  UNL1       -0.2646
     21 C         142.1764  142.5742  158.7572 C.3     1  UNL1        0.1049
     22 C         143.0608  143.6584  158.2168 C.3     1  UNL1        0.1595
     23 O         142.5881  145.0820  158.2174 O.3     1  UNL1       -0.3508
     24 C         141.2309  145.4213  158.7585 C.3     1  UNL1        0.1595
     25 C         140.3464  144.3371  159.2989 C.3     1  UNL1        0.1049
@<TRIPOS>BOND
     1     1     2    1
     2     2     3   ar
     3     3    19    1
     4    19    20    1
     5    20    21    1
     6    21    22    1
     7    22    23    1
     8    23    24    1
     9    24    25    1
    10     3     4   ar
    11     4     5   ar
    12     5     7    1
    13     7     8   ar
    14     8     9   ar
    15     9    10   ar
    16    10    13    1
    17    13    14    1
    18    13    15    1
    19    10    11   ar
    20    11    12   ar
    21     5     6   ar
    22     6    16    1
    23    16    17    1
    24    17    18    1
    25     6     2   ar
    26    18    16    1
    27    25    20    1
    28    12     7   ar
@<TRIPOS>MOLECULE
*****
 25 28 0 0 0
SMALL
GASTEIGER

@<TRIPOS>ATOM
      1 C         143.2868  143.5475  161.0763 C.3     1  UNL1        0.0497
      2 C         142.4412  143.3389  162.2975 C.ar    1  UNL1        0.0347
      3 C         141.0880  143.9368  162.5457 C.ar    1  UNL1        0.0070
      4 C         140.6108  143.4632  163.8866 C.ar    1  UNL1        0.0154
      5 C         141.6690  142.5726  164.4672 C.ar    1  UNL1        0.0593
      6 N         142.8002  142.4958  163.4851 N.ar    1  UNL1       -0.3328
      7 C         141.6068  141.8804  165.7964 C.ar    1  UNL1        0.0158
      8 C         142.7273  142.0436  166.7801 C.ar    1  UNL1        0.0011
      9 C         142.6652  141.3514  168.1094 C.ar    1  UNL1       -0.0042
     10 C         141.4826  140.4960  168.4550 C.ar    1  UNL1       -0.0225
     11 C         140.3620  140.3328  167.4713 C.ar    1  UNL1       -0.0042
     12 C         140.4241  141.0250  166.1420 C.ar    1  UNL1        0.0011
     13 C         141.4204  139.8038  169.7842 C.3     1  UNL1        0.0224
     14 C         142.5073  138.8511  170.1852 C.3     1  UNL1        0.0047
     15 C         140.2713  140.0643  170.7125 C.3     1  UNL1        0.0047
     16 C         144.0679  141.7133  163.6599 C.3     1  UNL1        0.0853
     17 C         145.5659  141.6631  163.7186 C.3     1  UNL1        0.0245
     18 C         144.7656  140.4080  163.9039 C.3     1  UNL1        0.0245
     19 C         140.3430  144.8483  161.6161 C.3     1  UNL1        0.1004
     20 N         139.9384  144.3640  160.2553 N.3     1  UNL1       -0.2646
     21 C         140.3013  145.1605  159.0372 C.3     1  UNL1        0.1049
     22 C         139.8967  144.6762  157.6764 C.3     1  UNL1        0.1595
     23 O         139.1292  143.3953  157.5338 O.3     1  UNL1       -0.3508
     24 C         138.7663  142.5988  158.7518 C.3     1  UNL1        0.1595
     25 C         139.1709  143.0831  160.1126 C.3     1  UNL1        0.1049
@<TRIPOS>BOND
     1     1     2    1
     2     2     3   ar
     3     3    19    1
     4    19    20    1
     5    20    21    1
     6    21    22    1
     7    22    23    1
     8    23    24    1
     9    24    25    1
    10     3     4   ar
    11     4     5   ar
    12     5     7    1
    13     7     8   ar
    14     8     9   ar
    15     9    10   ar
    16    10    13    1
    17    13    14    1
    18    13    15    1
    19    10    11   ar
    20    11    12   ar
    21     5     6   ar
    22     6    16    1
    23    16    17    1
    24    17    18    1
    25     6     2   ar
    26    18    16    1
    27    25    20    1
    28    12     7   ar
