@<TRIPOS>MOLECULE
*****
 28 31 0 0 0
SMALL
GASTEIGER

@<TRIPOS>ATOM
      1 C         139.6638  140.3460  168.1082 C.3     1  UNL1        0.0294
      2 C         140.6871  140.8707  169.0713 C.3     1  UNL1        0.1556
      3 N         141.3740  141.1796  170.3684 N.3     1  UNL1       -0.2892
      4 C         142.6741  141.9278  170.3691 C.3     1  UNL1        0.0738
      5 C         143.2873  142.3671  169.0726 C.3     1  UNL1        0.0463
      6 C         142.6004  142.0582  167.7754 C.ar    1  UNL1        0.0139
      7 C         141.3003  141.3100  167.7748 C.ar    1  UNL1        0.1368
      8 O         140.8581  141.1504  166.3503 O.2     1  UNL1       -0.4566
      9 C         141.8849  141.7999  165.4706 C.ar    1  UNL1        0.1459
     10 C         141.9785  141.9530  163.9814 C.ar    1  UNL1        0.0562
     11 C         143.1489  142.6671  163.3729 C.ar    1  UNL1        0.1133
     12 C         144.2257  143.2281  164.2537 C.ar    1  UNL1        0.0189
     13 C         144.1321  143.0751  165.7429 C.ar    1  UNL1        0.0041
     14 C         142.9617  142.3610  166.3514 C.ar    1  UNL1        0.0333
     15 H         141.5480  140.2865  170.8294 H       1  UNL1        0.1237
     16 C         139.7185  140.2492  170.0333 C.3     1  UNL1        0.3379
     17 F         140.1705  139.8692  171.4122 F       1  UNL1       -0.1965
     18 F         138.2980  140.0077  169.6165 F       1  UNL1       -0.1965
     19 S         143.2424  142.8202  161.8837 S.O2    1  UNL1        0.0276
     20 O         142.3491  141.6285  161.7050 O.2     1  UNL1       -0.1642
     21 O         144.1358  144.0119  162.0623 O.2     1  UNL1       -0.1642
     22 C         143.3360  142.9733  160.3944 C.ar    1  UNL1        0.1125
     23 C         142.2590  143.7012  159.6462 C.ar    1  UNL1        0.0189
     24 C         142.3525  143.8543  158.1570 C.ar    1  UNL1        0.0036
     25 C         143.5232  143.2794  157.4160 C.ar    1  UNL1        0.0297
     26 C         144.6003  142.5515  158.1643 C.ar    1  UNL1        0.1414
     27 F         145.7709  141.9766  157.4234 F       1  UNL1       -0.2041
     28 C         144.5067  142.3984  159.6535 C.ar    1  UNL1        0.0484
@<TRIPOS>BOND
     1     1     2    1
     2     2    16    1
     3    16    17    1
     4    16    18    1
     5     2     3    1
     6     3     4    1
     7     4     5    1
     8     5     6    1
     9     6     7   ar
    10     7     8   ar
    11     8     9   ar
    12     9    10   ar
    13    10    11   ar
    14    11    19    1
    15    19    20    2
    16    19    21    2
    17    19    22    1
    18    22    23   ar
    19    23    24   ar
    20    24    25   ar
    21    25    26   ar
    22    26    27    1
    23    26    28   ar
    24    11    12   ar
    25    12    13   ar
    26    13    14   ar
    27     7     2    1
    28    14     9   ar
    29    14     6   ar
    30    28    22   ar
    31     3    15    1
@<TRIPOS>MOLECULE
*****
 28 31 0 0 0
SMALL
GASTEIGER

@<TRIPOS>ATOM
      1 C         141.3827  142.6097  168.3923 C.3     1  UNL1        0.0294
      2 C         140.3536  141.8269  169.1527 C.3     1  UNL1        0.1556
      3 N         139.4740  141.3796  170.2824 N.3     1  UNL1       -0.2892
      4 C         138.5215  140.2379  170.0846 C.3     1  UNL1        0.0738
      5 C         138.4487  139.5433  168.7572 C.3     1  UNL1        0.0463
      6 C         139.3283  139.9905  167.6275 C.ar    1  UNL1        0.0139
      7 C         140.2807  141.1323  167.8252 C.ar    1  UNL1        0.1368
      8 O         141.0180  141.3493  166.5371 O.2     1  UNL1       -0.4566
      9 C         140.5213  140.3416  165.5432 C.ar    1  UNL1        0.1459
     10 C         140.8849  140.0802  164.1116 C.ar    1  UNL1        0.0562
     11 C         140.2042  138.9791  163.3539 C.ar    1  UNL1        0.1133
     12 C         139.1599  138.1393  164.0278 C.ar    1  UNL1        0.0189
     13 C         138.7962  138.4007  165.4594 C.ar    1  UNL1        0.0041
     14 C         139.4769  139.5018  166.2171 C.ar    1  UNL1        0.0333
     15 H         138.9135  142.1866  170.5564 H       1  UNL1        0.1237
     16 C         140.7839  142.7933  170.2161 C.3     1  UNL1        0.3379
     17 F         141.2750  142.2836  171.5386 F       1  UNL1       -0.1965
     18 F         140.7230  144.2695  169.9571 F       1  UNL1       -0.1965
     19 S         140.5679  138.7177  161.9223 S.O2    1  UNL1        0.0276
     20 O         140.3501  140.1669  161.6024 O.2     1  UNL1       -0.1642
     21 O         140.7857  137.2684  162.2422 O.2     1  UNL1       -0.1642
     22 C         140.9316  138.4563  160.4907 C.ar    1  UNL1        0.1125
     23 C         142.3382  138.0795  160.1310 C.ar    1  UNL1        0.0189
     24 C         142.7018  137.8181  158.6994 C.ar    1  UNL1        0.0036
     25 C         141.6589  137.9335  157.6276 C.ar    1  UNL1        0.0297
     26 C         140.2522  138.3102  157.9873 C.ar    1  UNL1        0.1414
     27 F         139.2093  138.4256  156.9155 F       1  UNL1       -0.2041
     28 C         139.8886  138.5716  159.4189 C.ar    1  UNL1        0.0484
@<TRIPOS>BOND
     1     1     2    1
     2     2    16    1
     3    16    17    1
     4    16    18    1
     5     2     3    1
     6     3     4    1
     7     4     5    1
     8     5     6    1
     9     6     7   ar
    10     7     8   ar
    11     8     9   ar
    12     9    10   ar
    13    10    11   ar
    14    11    19    1
    15    19    20    2
    16    19    21    2
    17    19    22    1
    18    22    23   ar
    19    23    24   ar
    20    24    25   ar
    21    25    26   ar
    22    26    27    1
    23    26    28   ar
    24    11    12   ar
    25    12    13   ar
    26    13    14   ar
    27     7     2    1
    28    14     9   ar
    29    14     6   ar
    30    28    22   ar
    31     3    15    1
@<TRIPOS>MOLECULE
*****
 28 31 0 0 0
SMALL
GASTEIGER

@<TRIPOS>ATOM
      1 C         139.5688  140.6155  168.3267 C.3     1  UNL1        0.0294
      2 C         140.7597  140.9246  169.1847 C.3     1  UNL1        0.1556
      3 N         141.6383  141.0144  170.3971 N.3     1  UNL1       -0.2892
      4 C         143.0027  141.6284  170.2909 C.3     1  UNL1        0.0738
      5 C         143.4886  142.1528  168.9723 C.3     1  UNL1        0.0463
      6 C         142.6100  142.0631  167.7598 C.ar    1  UNL1        0.0139
      7 C         141.2456  141.4490  167.8660 C.ar    1  UNL1        0.1368
      8 O         140.6084  141.4979  166.5090 O.2     1  UNL1       -0.4566
      9 C         141.5790  142.1422  165.5640 C.ar    1  UNL1        0.1459
     10 C         141.4962  142.4560  164.0995 C.ar    1  UNL1        0.0562
     11 C         142.6504  143.1190  163.4081 C.ar    1  UNL1        0.1133
     12 C         143.8875  143.4683  164.1812 C.ar    1  UNL1        0.0189
     13 C         143.9703  143.1545  165.6457 C.ar    1  UNL1        0.0041
     14 C         142.8160  142.4915  166.3371 C.ar    1  UNL1        0.0333
     15 H         141.7698  140.0615  170.7366 H       1  UNL1        0.1237
     16 C         139.8602  140.2929  170.2054 C.3     1  UNL1        0.3379
     17 F         140.3670  140.0326  171.5930 F       1  UNL1       -0.1965
     18 F         138.4541  139.9215  169.8385 F       1  UNL1       -0.1965
     19 S         142.5676  143.4328  161.9436 S.O2    1  UNL1        0.0276
     20 O         141.4011  142.4993  161.8096 O.2     1  UNL1       -0.1642
     21 O         143.7341  144.3662  162.0776 O.2     1  UNL1       -0.1642
     22 C         142.4847  143.7466  160.4791 C.ar    1  UNL1        0.1125
     23 C         143.3744  143.0299  159.5072 C.ar    1  UNL1        0.0189
     24 C         143.2915  143.3436  158.0427 C.ar    1  UNL1        0.0036
     25 C         142.3191  144.3741  157.5502 C.ar    1  UNL1        0.0297
     26 C         141.4294  145.0907  158.5223 C.ar    1  UNL1        0.1414
     27 F         140.4570  146.1212  158.0299 F       1  UNL1       -0.2041
     28 C         141.5123  144.7770  159.9867 C.ar    1  UNL1        0.0484
@<TRIPOS>BOND
     1     1     2    1
     2     2    16    1
     3    16    17    1
     4    16    18    1
     5     2     3    1
     6     3     4    1
     7     4     5    1
     8     5     6    1
     9     6     7   ar
    10     7     8   ar
    11     8     9   ar
    12     9    10   ar
    13    10    11   ar
    14    11    19    1
    15    19    20    2
    16    19    21    2
    17    19    22    1
    18    22    23   ar
    19    23    24   ar
    20    24    25   ar
    21    25    26   ar
    22    26    27    1
    23    26    28   ar
    24    11    12   ar
    25    12    13   ar
    26    13    14   ar
    27     7     2    1
    28    14     9   ar
    29    14     6   ar
    30    28    22   ar
    31     3    15    1
@<TRIPOS>MOLECULE
*****
 28 31 0 0 0
SMALL
GASTEIGER

@<TRIPOS>ATOM
      1 C         142.5990  139.6821  166.5699 C.3     1  UNL1        0.0294
      2 C         141.8770  140.4844  167.6116 C.3     1  UNL1        0.1556
      3 N         141.3267  140.8916  168.9462 N.3     1  UNL1       -0.2892
      4 C         140.5328  142.1577  169.0755 C.3     1  UNL1        0.0738
      5 C         140.2893  143.0166  167.8702 C.3     1  UNL1        0.0463
      6 C         140.8396  142.6094  166.5356 C.ar    1  UNL1        0.0139
      7 C         141.6335  141.3433  166.4063 C.ar    1  UNL1        0.1368
      8 O         142.0472  141.2002  164.9716 O.2     1  UNL1       -0.4566
      9 C         141.5091  142.3778  164.2142 C.ar    1  UNL1        0.1459
     10 C         141.6022  142.7695  162.7692 C.ar    1  UNL1        0.0562
     11 C         140.9490  144.0322  162.2909 C.ar    1  UNL1        0.1133
     12 C         140.2027  144.9032  163.2575 C.ar    1  UNL1        0.0189
     13 C         140.1095  144.5115  164.7025 C.ar    1  UNL1        0.0041
     14 C         140.7627  143.2487  165.1808 C.ar    1  UNL1        0.0333
     15 H         142.1221  140.9768  169.5791 H       1  UNL1        0.1237
     16 C         142.3713  139.3468  168.4552 C.3     1  UNL1        0.3379
     17 F         143.3731  138.3796  167.8975 F       1  UNL1       -0.1965
     18 F         141.8639  139.1764  169.8564 F       1  UNL1       -0.1965
     19 S         141.0422  144.4240  160.8459 S.O2    1  UNL1        0.0276
     20 O         139.5456  144.4105  160.7458 O.2     1  UNL1       -0.1642
     21 O         142.5388  144.4375  160.9461 O.2     1  UNL1       -0.1642
     22 C         141.1353  144.8158  159.4010 C.ar    1  UNL1        0.1125
     23 C         142.2144  144.2365  158.5350 C.ar    1  UNL1        0.0189
     24 C         142.3076  144.6283  157.0900 C.ar    1  UNL1        0.0036
     25 C         141.3216  145.5992  156.5111 C.ar    1  UNL1        0.0297
     26 C         140.2426  146.1785  157.3772 C.ar    1  UNL1        0.1414
     27 F         139.2566  147.1494  156.7983 F       1  UNL1       -0.2041
     28 C         140.1494  145.7867  158.8221 C.ar    1  UNL1        0.0484
@<TRIPOS>BOND
     1     1     2    1
     2     2    16    1
     3    16    17    1
     4    16    18    1
     5     2     3    1
     6     3     4    1
     7     4     5    1
     8     5     6    1
     9     6     7   ar
    10     7     8   ar
    11     8     9   ar
    12     9    10   ar
    13    10    11   ar
    14    11    19    1
    15    19    20    2
    16    19    21    2
    17    19    22    1
    18    22    23   ar
    19    23    24   ar
    20    24    25   ar
    21    25    26   ar
    22    26    27    1
    23    26    28   ar
    24    11    12   ar
    25    12    13   ar
    26    13    14   ar
    27     7     2    1
    28    14     9   ar
    29    14     6   ar
    30    28    22   ar
    31     3    15    1
@<TRIPOS>MOLECULE
*****
 28 31 0 0 0
SMALL
GASTEIGER

@<TRIPOS>ATOM
      1 C         142.5331  139.6728  167.8614 C.3     1  UNL1        0.0294
      2 C         141.9222  140.5978  168.8720 C.3     1  UNL1        0.1556
      3 N         141.5454  141.1830  170.2007 N.3     1  UNL1       -0.2892
      4 C         140.7069  142.4252  170.2625 C.3     1  UNL1        0.0738
      5 C         140.2452  143.0822  168.9956 C.3     1  UNL1        0.0463
      6 C         140.6220  142.4970  167.6669 C.ar    1  UNL1        0.0139
      7 C         141.4605  141.2548  167.6051 C.ar    1  UNL1        0.1368
      8 O         141.6730  140.9103  166.1607 O.2     1  UNL1       -0.4566
      9 C         140.9659  141.9396  165.3298 C.ar    1  UNL1        0.1459
     10 C         140.8295  142.1107  163.8458 C.ar    1  UNL1        0.0562
     11 C         140.0435  143.2624  163.2927 C.ar    1  UNL1        0.1133
     12 C         139.3940  144.2430  164.2236 C.ar    1  UNL1        0.0189
     13 C         139.5304  144.0719  165.7076 C.ar    1  UNL1        0.0041
     14 C         140.3163  142.9202  166.2607 C.ar    1  UNL1        0.0333
     15 H         142.4167  141.3913  170.6885 H       1  UNL1        0.1237
     16 C         142.5961  139.6195  169.7880 C.3     1  UNL1        0.3379
     17 F         142.8729  138.2216  169.3197 F       1  UNL1       -0.1965
     18 F         142.9931  140.0391  171.1723 F       1  UNL1       -0.1965
     19 S         139.9072  143.4335  161.8087 S.O2    1  UNL1        0.0276
     20 O         141.0044  142.4337  161.5927 O.2     1  UNL1       -0.1642
     21 O         138.8100  144.4332  162.0248 O.2     1  UNL1       -0.1642
     22 C         139.7708  143.6045  160.3248 C.ar    1  UNL1        0.1125
     23 C         139.0349  142.5778  159.5160 C.ar    1  UNL1        0.0189
     24 C         138.8985  142.7489  158.0320 C.ar    1  UNL1        0.0036
     25 C         139.4980  143.9467  157.3569 C.ar    1  UNL1        0.0297
     26 C         140.2340  144.9734  158.1658 C.ar    1  UNL1        0.1414
     27 F         140.8335  146.1712  157.4907 F       1  UNL1       -0.2041
     28 C         140.3703  144.8023  159.6496 C.ar    1  UNL1        0.0484
@<TRIPOS>BOND
     1     1     2    1
     2     2    16    1
     3    16    17    1
     4    16    18    1
     5     2     3    1
     6     3     4    1
     7     4     5    1
     8     5     6    1
     9     6     7   ar
    10     7     8   ar
    11     8     9   ar
    12     9    10   ar
    13    10    11   ar
    14    11    19    1
    15    19    20    2
    16    19    21    2
    17    19    22    1
    18    22    23   ar
    19    23    24   ar
    20    24    25   ar
    21    25    26   ar
    22    26    27    1
    23    26    28   ar
    24    11    12   ar
    25    12    13   ar
    26    13    14   ar
    27     7     2    1
    28    14     9   ar
    29    14     6   ar
    30    28    22   ar
    31     3    15    1
@<TRIPOS>MOLECULE
*****
 28 31 0 0 0
SMALL
GASTEIGER

@<TRIPOS>ATOM
      1 C         140.3274  142.8850  168.0096 C.3     1  UNL1        0.0294
      2 C         141.0731  141.9540  168.9192 C.3     1  UNL1        0.1556
      3 N         141.6770  141.3895  170.1708 N.3     1  UNL1       -0.2892
      4 C         142.4302  140.0932  170.1216 C.3     1  UNL1        0.0738
      5 C         142.5795  139.3615  168.8207 C.3     1  UNL1        0.0463
      6 C         141.9756  139.9260  167.5691 C.ar    1  UNL1        0.0139
      7 C         141.2224  141.2223  167.6183 C.ar    1  UNL1        0.1368
      8 O         140.7401  141.5310  166.2320 O.2     1  UNL1       -0.4566
      9 C         141.1952  140.4256  165.3259 C.ar    1  UNL1        0.1459
     10 C         141.0129  140.1941  163.8551 C.ar    1  UNL1        0.0562
     11 C         141.5942  138.9707  163.2107 C.ar    1  UNL1        0.1133
     12 C         142.3579  137.9788  164.0372 C.ar    1  UNL1        0.0189
     13 C         142.5401  138.2103  165.5079 C.ar    1  UNL1        0.0041
     14 C         141.9588  139.4337  166.1523 C.ar    1  UNL1        0.0333
     15 H         140.9130  141.2611  170.8344 H       1  UNL1        0.1237
     16 C         140.6648  143.0091  169.9042 C.3     1  UNL1        0.3379
     17 F         141.5638  144.1815  170.1631 F       1  UNL1       -0.1965
     18 F         139.3575  142.8916  170.6302 F       1  UNL1       -0.1965
     19 S         141.4120  138.7392  161.7399 S.O2    1  UNL1        0.0276
     20 O         142.1725  139.9986  161.4475 O.2     1  UNL1       -0.1642
     21 O         140.6514  137.4798  162.0324 O.2     1  UNL1       -0.1642
     22 C         141.2297  138.5077  160.2691 C.ar    1  UNL1        0.1125
     23 C         139.8724  138.6583  159.6488 C.ar    1  UNL1        0.0189
     24 C         139.6901  138.4268  158.1780 C.ar    1  UNL1        0.0036
     25 C         140.8652  138.0447  157.3277 C.ar    1  UNL1        0.0297
     26 C         142.2225  137.8940  157.9481 C.ar    1  UNL1        0.1414
     27 F         143.3976  137.5119  157.0977 F       1  UNL1       -0.2041
     28 C         142.4048  138.1255  159.4188 C.ar    1  UNL1        0.0484
@<TRIPOS>BOND
     1     1     2    1
     2     2    16    1
     3    16    17    1
     4    16    18    1
     5     2     3    1
     6     3     4    1
     7     4     5    1
     8     5     6    1
     9     6     7   ar
    10     7     8   ar
    11     8     9   ar
    12     9    10   ar
    13    10    11   ar
    14    11    19    1
    15    19    20    2
    16    19    21    2
    17    19    22    1
    18    22    23   ar
    19    23    24   ar
    20    24    25   ar
    21    25    26   ar
    22    26    27    1
    23    26    28   ar
    24    11    12   ar
    25    12    13   ar
    26    13    14   ar
    27     7     2    1
    28    14     9   ar
    29    14     6   ar
    30    28    22   ar
    31     3    15    1
@<TRIPOS>MOLECULE
*****
 28 31 0 0 0
SMALL
GASTEIGER

@<TRIPOS>ATOM
      1 C         140.9190  145.2391  160.0282 C.3     1  UNL1        0.0294
      2 C         142.0023  144.5808  159.2263 C.3     1  UNL1        0.1556
      3 N         142.9206  144.2768  158.0799 N.3     1  UNL1       -0.2892
      4 C         143.9375  143.1811  158.2038 C.3     1  UNL1        0.0738
      5 C         144.0361  142.3894  159.4740 C.3     1  UNL1        0.0463
      6 C         143.1177  142.6934  160.6203 C.ar    1  UNL1        0.0139
      7 C         142.1008  143.7891  160.4965 C.ar    1  UNL1        0.1368
      8 O         141.3364  143.8598  161.7851 O.2     1  UNL1       -0.4566
      9 C         141.8809  142.8079  162.7055 C.ar    1  UNL1        0.1459
     10 C         141.5164  142.4133  164.1060 C.ar    1  UNL1        0.0562
     11 C         142.2529  141.2978  164.7866 C.ar    1  UNL1        0.1133
     12 C         143.3538  140.5769  164.0667 C.ar    1  UNL1        0.0189
     13 C         143.7183  140.9715  162.6662 C.ar    1  UNL1        0.0041
     14 C         142.9818  142.0870  161.9855 C.ar    1  UNL1        0.0333
     15 H         143.4349  145.1345  157.8792 H       1  UNL1        0.1237
     16 C         141.5275  145.6011  158.2345 C.3     1  UNL1        0.3379
     17 F         140.0610  145.8820  158.0911 F       1  UNL1       -0.1965
     18 F         142.5192  146.3406  157.3862 F       1  UNL1       -0.1965
     19 S         141.8885  140.9032  166.1872 S.O2    1  UNL1        0.0276
     20 O         140.7515  141.8815  166.1669 O.2     1  UNL1       -0.1642
     21 O         143.0254  139.9250  166.2074 O.2     1  UNL1       -0.1642
     22 C         141.5240  140.5087  167.5877 C.ar    1  UNL1        0.1125
     23 C         142.5050  139.7515  168.4329 C.ar    1  UNL1        0.0189
     24 C         142.1405  139.3569  169.8334 C.ar    1  UNL1        0.0036
     25 C         140.7951  139.7195  170.3887 C.ar    1  UNL1        0.0297
     26 C         139.8142  140.4767  169.5435 C.ar    1  UNL1        0.1414
     27 F         138.4688  140.8393  170.0989 F       1  UNL1       -0.2041
     28 C         140.1786  140.8713  168.1431 C.ar    1  UNL1        0.0484
@<TRIPOS>BOND
     1     1     2    1
     2     2    16    1
     3    16    17    1
     4    16    18    1
     5     2     3    1
     6     3     4    1
     7     4     5    1
     8     5     6    1
     9     6     7   ar
    10     7     8   ar
    11     8     9   ar
    12     9    10   ar
    13    10    11   ar
    14    11    19    1
    15    19    20    2
    16    19    21    2
    17    19    22    1
    18    22    23   ar
    19    23    24   ar
    20    24    25   ar
    21    25    26   ar
    22    26    27    1
    23    26    28   ar
    24    11    12   ar
    25    12    13   ar
    26    13    14   ar
    27     7     2    1
    28    14     9   ar
    29    14     6   ar
    30    28    22   ar
    31     3    15    1
@<TRIPOS>MOLECULE
*****
 28 31 0 0 0
SMALL
GASTEIGER

@<TRIPOS>ATOM
      1 C         142.8966  142.1460  168.1831 C.3     1  UNL1        0.0294
      2 C         141.8631  141.5898  169.1173 C.3     1  UNL1        0.1556
      3 N         141.1679  141.2286  170.3964 N.3     1  UNL1       -0.2892
      4 C         139.8577  140.4992  170.3578 C.3     1  UNL1        0.0738
      5 C         139.2428  140.1311  169.0401 C.3     1  UNL1        0.0463
      6 C         139.9380  140.4924  167.7610 C.ar    1  UNL1        0.0139
      7 C         141.2482  141.2217  167.7996 C.ar    1  UNL1        0.1368
      8 O         141.6971  141.4433  166.3856 O.2     1  UNL1       -0.4566
      9 C         140.6645  140.8510  165.4731 C.ar    1  UNL1        0.1459
     10 C         140.5736  140.7708  163.9780 C.ar    1  UNL1        0.0562
     11 C         139.3956  140.1029  163.3330 C.ar    1  UNL1        0.1133
     12 C         138.3084  139.5151  164.1830 C.ar    1  UNL1        0.0189
     13 C         138.3992  139.5953  165.6781 C.ar    1  UNL1        0.0041
     14 C         139.5773  140.2632  166.3232 C.ar    1  UNL1        0.0333
     15 H         141.0046  142.1008  170.8993 H       1  UNL1        0.1237
     16 C         142.8370  142.1511  170.1106 C.3     1  UNL1        0.3379
     17 F         144.2836  142.2976  169.7421 F       1  UNL1       -0.1965
     18 F         142.3642  142.5659  171.4723 F       1  UNL1       -0.1965
     19 S         139.3047  140.0227  161.8379 S.O2    1  UNL1        0.0276
     20 O         137.8097  140.1088  161.9241 O.2     1  UNL1       -0.1642
     21 O         140.7998  139.9366  161.7516 O.2     1  UNL1       -0.1642
     22 C         139.2139  139.9425  160.3427 C.ar    1  UNL1        0.1125
     23 C         138.5629  141.0514  159.5704 C.ar    1  UNL1        0.0189
     24 C         138.4721  140.9712  158.0753 C.ar    1  UNL1        0.0036
     25 C         139.0322  139.7821  157.3526 C.ar    1  UNL1        0.0297
     26 C         139.6832  138.6733  158.1250 C.ar    1  UNL1        0.1414
     27 F         140.2434  137.4842  157.4023 F       1  UNL1       -0.2041
     28 C         139.7741  138.7535  159.6200 C.ar    1  UNL1        0.0484
@<TRIPOS>BOND
     1     1     2    1
     2     2    16    1
     3    16    17    1
     4    16    18    1
     5     2     3    1
     6     3     4    1
     7     4     5    1
     8     5     6    1
     9     6     7   ar
    10     7     8   ar
    11     8     9   ar
    12     9    10   ar
    13    10    11   ar
    14    11    19    1
    15    19    20    2
    16    19    21    2
    17    19    22    1
    18    22    23   ar
    19    23    24   ar
    20    24    25   ar
    21    25    26   ar
    22    26    27    1
    23    26    28   ar
    24    11    12   ar
    25    12    13   ar
    26    13    14   ar
    27     7     2    1
    28    14     9   ar
    29    14     6   ar
    30    28    22   ar
    31     3    15    1
@<TRIPOS>MOLECULE
*****
 28 31 0 0 0
SMALL
GASTEIGER

@<TRIPOS>ATOM
      1 C         144.1870  142.1261  159.6015 C.3     1  UNL1        0.0294
      2 C         143.3938  143.2454  158.9947 C.3     1  UNL1        0.1556
      3 N         142.8893  144.2253  157.9774 N.3     1  UNL1       -0.2892
      4 C         141.8291  145.2177  158.3532 C.3     1  UNL1        0.0738
      5 C         141.2735  145.2301  159.7464 C.3     1  UNL1        0.0463
      6 C         141.7780  144.2501  160.7638 C.ar    1  UNL1        0.0139
      7 C         142.8382  143.2578  160.3879 C.ar    1  UNL1        0.1368
      8 O         143.1377  142.4198  161.5955 O.2     1  UNL1       -0.4566
      9 C         142.2626  142.8942  162.7176 C.ar    1  UNL1        0.1459
     10 C         142.1224  142.4424  164.1411 C.ar    1  UNL1        0.0562
     11 C         141.1419  143.1217  165.0505 C.ar    1  UNL1        0.1133
     12 C         140.3016  144.2529  164.5364 C.ar    1  UNL1        0.0189
     13 C         140.4418  144.7048  163.1130 C.ar    1  UNL1        0.0041
     14 C         141.4223  144.0254  162.2036 C.ar    1  UNL1        0.0333
     15 H         142.5185  143.6784  157.2003 H       1  UNL1        0.1237
     16 C         144.2250  142.8443  157.8122 C.3     1  UNL1        0.3379
     17 F         145.6829  142.5392  157.9891 F       1  UNL1       -0.1965
     18 F         143.5982  142.7482  156.4529 F       1  UNL1       -0.1965
     19 S         141.0017  142.6698  166.4739 S.O2    1  UNL1        0.0276
     20 O         142.1889  141.7687  166.3048 O.2     1  UNL1       -0.1642
     21 O         139.8145  143.5710  166.6431 O.2     1  UNL1       -0.1642
     22 C         140.8615  142.2180  167.8974 C.ar    1  UNL1        0.1125
     23 C         140.3256  143.1603  168.9340 C.ar    1  UNL1        0.0189
     24 C         140.1854  142.7085  170.3575 C.ar    1  UNL1        0.0036
     25 C         140.5812  141.3143  170.7442 C.ar    1  UNL1        0.0297
     26 C         141.1171  140.3720  169.7075 C.ar    1  UNL1        0.1414
     27 F         141.5129  138.9778  170.0942 F       1  UNL1       -0.2041
     28 C         141.2573  140.8238  168.2841 C.ar    1  UNL1        0.0484
@<TRIPOS>BOND
     1     1     2    1
     2     2    16    1
     3    16    17    1
     4    16    18    1
     5     2     3    1
     6     3     4    1
     7     4     5    1
     8     5     6    1
     9     6     7   ar
    10     7     8   ar
    11     8     9   ar
    12     9    10   ar
    13    10    11   ar
    14    11    19    1
    15    19    20    2
    16    19    21    2
    17    19    22    1
    18    22    23   ar
    19    23    24   ar
    20    24    25   ar
    21    25    26   ar
    22    26    27    1
    23    26    28   ar
    24    11    12   ar
    25    12    13   ar
    26    13    14   ar
    27     7     2    1
    28    14     9   ar
    29    14     6   ar
    30    28    22   ar
    31     3    15    1
