@<TRIPOS>MOLECULE
*****
 28 31 0 0 0
SMALL
GASTEIGER

@<TRIPOS>ATOM
      1 O         143.6513  142.5259  166.9203 O.3     1  UNL1       -0.3768
      2 C         142.4622  142.0932  166.1148 C.3     1  UNL1        0.1456
      3 H         143.3506  142.9942  167.7147 H       1  UNL1        0.2112
      4 C         141.8436  141.5007  167.3462 C.ar    1  UNL1        0.0264
      5 C         140.6611  142.1659  167.9858 C.ar    1  UNL1        0.0015
      6 C         140.0426  141.5734  169.2172 C.ar    1  UNL1        0.0204
      7 C         140.6066  140.3158  169.8090 C.ar    1  UNL1        0.0989
      8 N         141.7892  139.6506  169.1694 N.ar    1  UNL1       -0.2426
      9 C         142.4077  140.2431  167.9380 C.ar    1  UNL1        0.0972
     10 C         143.0808  142.6857  164.8834 C.ar    1  UNL1        0.0264
     11 C         143.0734  144.1720  164.6812 C.ar    1  UNL1        0.0015
     12 C         143.6921  144.7645  163.4498 C.ar    1  UNL1        0.0204
     13 C         144.3180  143.8706  162.4206 C.ar    1  UNL1        0.0989
     14 N         144.3254  142.3843  162.6228 N.ar    1  UNL1       -0.2426
     15 C         143.7068  141.7919  163.8542 C.ar    1  UNL1        0.0972
     16 C         141.2732  141.6606  165.3093 C.3     1  UNL1        0.1131
     17 C         140.3919  142.6874  164.6621 C.ar    1  UNL1       -0.0049
     18 C         140.1764  142.6626  163.1779 C.ar    1  UNL1       -0.0029
     19 C         139.2950  143.6895  162.5307 C.ar    1  UNL1       -0.0003
     20 C         138.6292  144.7411  163.3677 C.ar    1  UNL1       -0.0000
     21 C         138.8447  144.7660  164.8520 C.ar    1  UNL1       -0.0003
     22 C         139.7260  143.7391  165.4992 C.ar    1  UNL1       -0.0029
     23 N         140.9654  140.2010  165.1509 N.3     1  UNL1       -0.2636
     24 C         142.0316  139.2564  164.6809 C.3     1  UNL1        0.1049
     25 C         141.7238  137.7969  164.5226 C.3     1  UNL1        0.1595
     26 O         140.3498  137.2819  164.8342 O.3     1  UNL1       -0.3508
     27 C         139.2836  138.2266  165.3042 C.3     1  UNL1        0.1595
     28 C         139.5914  139.6861  165.4625 C.3     1  UNL1        0.1049
@<TRIPOS>BOND
     1     1     2    1
     2     2     4    1
     3     4     5   ar
     4     5     6   ar
     5     6     7   ar
     6     7     8   ar
     7     8     9   ar
     8     2    10    1
     9    10    11   ar
    10    11    12   ar
    11    12    13   ar
    12    13    14   ar
    13    14    15   ar
    14     2    16    1
    15    16    17    1
    16    17    18   ar
    17    18    19   ar
    18    19    20   ar
    19    20    21   ar
    20    21    22   ar
    21    16    23    1
    22    23    24    1
    23    24    25    1
    24    25    26    1
    25    26    27    1
    26    27    28    1
    27     9     4   ar
    28    15    10   ar
    29    22    17   ar
    30    28    23    1
    31     1     3    1
@<TRIPOS>MOLECULE
*****
 28 31 0 0 0
SMALL
GASTEIGER

@<TRIPOS>ATOM
      1 O         143.6561  142.5230  166.9225 O.3     1  UNL1       -0.3768
      2 C         142.4663  142.0918  166.1174 C.3     1  UNL1        0.1456
      3 H         144.4690  142.2411  166.4746 H       1  UNL1        0.2112
      4 C         143.0845  142.6850  164.8861 C.ar    1  UNL1        0.0264
      5 C         143.0759  144.1713  164.6842 C.ar    1  UNL1        0.0015
      6 C         143.6941  144.7645  163.4530 C.ar    1  UNL1        0.0204
      7 C         144.3209  143.8714  162.4237 C.ar    1  UNL1        0.0989
      8 N         144.3296  142.3851  162.6257 N.ar    1  UNL1       -0.2426
      9 C         143.7114  141.7919  163.8569 C.ar    1  UNL1        0.0972
     10 C         141.8481  141.4985  167.3486 C.ar    1  UNL1        0.0264
     11 C         140.6652  142.1628  167.9885 C.ar    1  UNL1        0.0015
     12 C         140.0471  141.5695  169.2198 C.ar    1  UNL1        0.0204
     13 C         140.6118  140.3120  169.8111 C.ar    1  UNL1        0.0989
     14 N         141.7947  139.6478  169.1712 N.ar    1  UNL1       -0.2426
     15 C         142.4129  140.2410  167.9400 C.ar    1  UNL1        0.0972
     16 C         141.2765  141.6605  165.3122 C.3     1  UNL1        0.1131
     17 C         140.3955  142.6885  164.6664 C.ar    1  UNL1       -0.0049
     18 C         139.7309  143.7400  165.5046 C.ar    1  UNL1       -0.0029
     19 C         138.8499  144.7679  164.8587 C.ar    1  UNL1       -0.0003
     20 C         138.6335  144.7444  163.3746 C.ar    1  UNL1       -0.0000
     21 C         139.2981  143.6928  162.5363 C.ar    1  UNL1       -0.0003
     22 C         140.1791  142.6649  163.1822 C.ar    1  UNL1       -0.0029
     23 N         140.9676  140.2013  165.1529 N.3     1  UNL1       -0.2636
     24 C         142.0324  139.2566  164.6801 C.3     1  UNL1        0.1049
     25 C         141.7236  137.7974  164.5208 C.3     1  UNL1        0.1595
     26 O         140.3499  137.2829  164.8343 O.3     1  UNL1       -0.3508
     27 C         139.2850  138.2276  165.3071 C.3     1  UNL1        0.1595
     28 C         139.5939  139.6869  165.4664 C.3     1  UNL1        0.1049
@<TRIPOS>BOND
     1     1     2    1
     2     2     4    1
     3     4     5   ar
     4     5     6   ar
     5     6     7   ar
     6     7     8   ar
     7     8     9   ar
     8     2    10    1
     9    10    11   ar
    10    11    12   ar
    11    12    13   ar
    12    13    14   ar
    13    14    15   ar
    14     2    16    1
    15    16    17    1
    16    17    18   ar
    17    18    19   ar
    18    19    20   ar
    19    20    21   ar
    20    21    22   ar
    21    16    23    1
    22    23    24    1
    23    24    25    1
    24    25    26    1
    25    26    27    1
    26    27    28    1
    27     9     4   ar
    28    15    10   ar
    29    22    17   ar
    30    28    23    1
    31     1     3    1
@<TRIPOS>MOLECULE
*****
 28 31 0 0 0
SMALL
GASTEIGER

@<TRIPOS>ATOM
      1 O         143.3709  141.5801  167.1720 O.3     1  UNL1       -0.3768
      2 C         142.2611  141.3204  166.1969 C.3     1  UNL1        0.1456
      3 H         143.1052  142.2839  167.7844 H       1  UNL1        0.2112
      4 C         141.2859  141.2241  167.3326 C.ar    1  UNL1        0.0264
      5 C         141.0572  142.4064  168.2270 C.ar    1  UNL1        0.0015
      6 C         140.0819  142.3101  169.3626 C.ar    1  UNL1        0.0204
      7 C         139.3354  141.0316  169.6038 C.ar    1  UNL1        0.0989
      8 N         139.5641  139.8494  168.7094 N.ar    1  UNL1       -0.2426
      9 C         140.5394  139.9456  167.5738 C.ar    1  UNL1        0.0972
     10 C         143.2364  141.4166  165.0614 C.ar    1  UNL1        0.0264
     11 C         144.1818  140.2849  164.7867 C.ar    1  UNL1        0.0015
     12 C         145.1570  140.3812  163.6510 C.ar    1  UNL1        0.0204
     13 C         145.1869  141.6091  162.7901 C.ar    1  UNL1        0.0989
     14 N         144.2415  142.7408  163.0648 N.ar    1  UNL1       -0.2426
     15 C         143.2663  142.6446  164.2004 C.ar    1  UNL1        0.0972
     16 C         141.1513  141.0607  165.2218 C.3     1  UNL1        0.1131
     17 C         140.0650  142.0778  165.0336 C.ar    1  UNL1       -0.0049
     18 C         140.3818  143.5405  165.1327 C.ar    1  UNL1       -0.0029
     19 C         139.2955  144.5576  164.9444 C.ar    1  UNL1       -0.0003
     20 C         137.8924  144.1120  164.6570 C.ar    1  UNL1       -0.0000
     21 C         137.5756  142.6491  164.5579 C.ar    1  UNL1       -0.0003
     22 C         138.6619  141.6320  164.7462 C.ar    1  UNL1       -0.0029
     23 N         141.1278  139.7838  164.4349 N.3     1  UNL1       -0.2636
     24 C         141.0864  139.8272  162.9361 C.3     1  UNL1        0.1049
     25 C         141.0629  138.5504  162.1492 C.3     1  UNL1        0.1595
     26 O         141.0808  137.2302  162.8611 O.3     1  UNL1       -0.3508
     27 C         141.1222  137.1868  164.3599 C.3     1  UNL1        0.1595
     28 C         141.1458  138.4636  165.1468 C.3     1  UNL1        0.1049
@<TRIPOS>BOND
     1     1     2    1
     2     2     4    1
     3     4     5   ar
     4     5     6   ar
     5     6     7   ar
     6     7     8   ar
     7     8     9   ar
     8     2    10    1
     9    10    11   ar
    10    11    12   ar
    11    12    13   ar
    12    13    14   ar
    13    14    15   ar
    14     2    16    1
    15    16    17    1
    16    17    18   ar
    17    18    19   ar
    18    19    20   ar
    19    20    21   ar
    20    21    22   ar
    21    16    23    1
    22    23    24    1
    23    24    25    1
    24    25    26    1
    25    26    27    1
    26    27    28    1
    27     9     4   ar
    28    15    10   ar
    29    22    17   ar
    30    28    23    1
    31     1     3    1
@<TRIPOS>MOLECULE
*****
 28 31 0 0 0
SMALL
GASTEIGER

@<TRIPOS>ATOM
      1 O         143.6407  142.5499  166.8407 O.3     1  UNL1       -0.3768
      2 C         142.4587  142.1118  166.0278 C.3     1  UNL1        0.1456
      3 H         144.4580  142.2678  166.4009 H       1  UNL1        0.2112
      4 C         143.0857  142.7006  164.7989 C.ar    1  UNL1        0.0264
      5 C         143.0990  144.1877  164.6027 C.ar    1  UNL1        0.0015
      6 C         143.7260  144.7764  163.3738 C.ar    1  UNL1        0.0204
      7 C         144.3398  143.8781  162.3411 C.ar    1  UNL1        0.0989
      8 N         144.3265  142.3911  162.5373 N.ar    1  UNL1       -0.2426
      9 C         143.6995  141.8023  163.7662 C.ar    1  UNL1        0.0972
     10 C         141.8317  141.5231  167.2567 C.ar    1  UNL1        0.0264
     11 C         142.3909  140.2666  167.8555 C.ar    1  UNL1        0.0015
     12 C         141.7638  139.6778  169.0844 C.ar    1  UNL1        0.0204
     13 C         140.5777  140.3456  169.7146 C.ar    1  UNL1        0.0989
     14 N         140.0186  141.6021  169.1159 N.ar    1  UNL1       -0.2426
     15 C         140.6455  142.1909  167.8870 C.ar    1  UNL1        0.0972
     16 C         141.2766  141.6738  165.2149 C.3     1  UNL1        0.1131
     17 C         140.9758  140.2130  165.0556 C.ar    1  UNL1       -0.0049
     18 C         142.0390  139.2779  164.5604 C.ar    1  UNL1       -0.0029
     19 C         141.7381  137.8171  164.4011 C.ar    1  UNL1       -0.0003
     20 C         140.3741  137.2913  164.7370 C.ar    1  UNL1       -0.0000
     21 C         139.3108  138.2263  165.2322 C.ar    1  UNL1       -0.0003
     22 C         139.6117  139.6872  165.3915 C.ar    1  UNL1       -0.0029
     23 N         140.3954  142.6967  164.5613 N.3     1  UNL1       -0.2636
     24 C         140.1783  142.6613  163.0775 C.3     1  UNL1        0.1049
     25 C         139.2971  143.6841  162.4238 C.3     1  UNL1        0.1595
     26 O         138.6329  144.7424  163.2540 O.3     1  UNL1       -0.3508
     27 C         138.8500  144.7777  164.7378 C.3     1  UNL1        0.1595
     28 C         139.7312  143.7549  165.3914 C.3     1  UNL1        0.1049
@<TRIPOS>BOND
     1     1     2    1
     2     2     4    1
     3     4     5   ar
     4     5     6   ar
     5     6     7   ar
     6     7     8   ar
     7     8     9   ar
     8     2    10    1
     9    10    11   ar
    10    11    12   ar
    11    12    13   ar
    12    13    14   ar
    13    14    15   ar
    14     2    16    1
    15    16    17    1
    16    17    18   ar
    17    18    19   ar
    18    19    20   ar
    19    20    21   ar
    20    21    22   ar
    21    16    23    1
    22    23    24    1
    23    24    25    1
    24    25    26    1
    25    26    27    1
    26    27    28    1
    27     9     4   ar
    28    15    10   ar
    29    22    17   ar
    30    28    23    1
    31     1     3    1
@<TRIPOS>MOLECULE
*****
 28 31 0 0 0
SMALL
GASTEIGER

@<TRIPOS>ATOM
      1 O         142.4177  139.5060  166.7218 O.3     1  UNL1       -0.3768
      2 C         141.7192  140.0640  165.5173 C.3     1  UNL1        0.1456
      3 H         143.1990  139.0054  166.4394 H       1  UNL1        0.2112
      4 C         143.0226  140.6103  165.0146 C.ar    1  UNL1        0.0264
      5 C         143.2969  142.0832  165.0885 C.ar    1  UNL1        0.0015
      6 C         144.6002  142.6294  164.5858 C.ar    1  UNL1        0.0204
      7 C         145.6294  141.7029  164.0092 C.ar    1  UNL1        0.0989
      8 N         145.3551  140.2301  163.9354 N.ar    1  UNL1       -0.2426
      9 C         144.0517  139.6838  164.4381 C.ar    1  UNL1        0.0972
     10 C         140.4159  139.5176  166.0201 C.ar    1  UNL1        0.0264
     11 C         139.6825  138.4775  165.2262 C.ar    1  UNL1        0.0015
     12 C         138.3791  137.9311  165.7289 C.ar    1  UNL1        0.0204
     13 C         137.8091  138.4249  167.0256 C.ar    1  UNL1        0.0989
     14 N         138.5425  139.4650  167.8195 N.ar    1  UNL1       -0.2426
     15 C         139.8458  140.0114  167.3168 C.ar    1  UNL1        0.0972
     16 C         141.0207  140.6219  164.3129 C.3     1  UNL1        0.1131
     17 C         139.9946  141.7039  164.4751 C.ar    1  UNL1       -0.0049
     18 C         138.6370  141.5490  163.8562 C.ar    1  UNL1       -0.0029
     19 C         137.6109  142.6310  164.0185 C.ar    1  UNL1       -0.0003
     20 C         137.9423  143.8679  164.7997 C.ar    1  UNL1       -0.0000
     21 C         139.2999  144.0228  165.4186 C.ar    1  UNL1       -0.0003
     22 C         140.3260  142.9408  165.2564 C.ar    1  UNL1       -0.0029
     23 N         141.3484  140.0979  162.9461 N.3     1  UNL1       -0.2636
     24 C         141.7646  141.0448  161.8597 C.3     1  UNL1        0.1049
     25 C         142.0922  140.5208  160.4930 C.3     1  UNL1        0.1595
     26 O         142.0037  139.0499  160.2125 O.3     1  UNL1       -0.3508
     27 C         141.5874  138.1030  161.2988 C.3     1  UNL1        0.1595
     28 C         141.2598  138.6270  162.6656 C.3     1  UNL1        0.1049
@<TRIPOS>BOND
     1     1     2    1
     2     2     4    1
     3     4     5   ar
     4     5     6   ar
     5     6     7   ar
     6     7     8   ar
     7     8     9   ar
     8     2    10    1
     9    10    11   ar
    10    11    12   ar
    11    12    13   ar
    12    13    14   ar
    13    14    15   ar
    14     2    16    1
    15    16    17    1
    16    17    18   ar
    17    18    19   ar
    18    19    20   ar
    19    20    21   ar
    20    21    22   ar
    21    16    23    1
    22    23    24    1
    23    24    25    1
    24    25    26    1
    25    26    27    1
    26    27    28    1
    27     9     4   ar
    28    15    10   ar
    29    22    17   ar
    30    28    23    1
    31     1     3    1
@<TRIPOS>MOLECULE
*****
 28 31 0 0 0
SMALL
GASTEIGER

@<TRIPOS>ATOM
      1 O         143.6341  142.5552  166.8570 O.3     1  UNL1       -0.3768
      2 C         142.4524  142.1173  166.0436 C.3     1  UNL1        0.1456
      3 H         143.3260  143.0217  167.6497 H       1  UNL1        0.2112
      4 C         141.8286  141.5214  167.2708 C.ar    1  UNL1        0.0264
      5 C         142.3955  140.2669  167.8665 C.ar    1  UNL1        0.0015
      6 C         141.7717  139.6710  169.0936 C.ar    1  UNL1        0.0204
      7 C         140.5810  140.3296  169.7250 C.ar    1  UNL1        0.0989
      8 N         140.0141  141.5841  169.1292 N.ar    1  UNL1       -0.2426
      9 C         140.6379  142.1799  167.9022 C.ar    1  UNL1        0.0972
     10 C         143.0761  142.7132  164.8166 C.ar    1  UNL1        0.0264
     11 C         143.0765  144.2006  164.6223 C.ar    1  UNL1        0.0015
     12 C         143.7003  144.7965  163.3951 C.ar    1  UNL1        0.0204
     13 C         144.3238  143.9051  162.3624 C.ar    1  UNL1        0.0989
     14 N         144.3234  142.4177  162.5567 N.ar    1  UNL1       -0.2426
     15 C         143.6996  141.8218  163.7837 C.ar    1  UNL1        0.0972
     16 C         141.2706  141.6794  165.2302 C.3     1  UNL1        0.1131
     17 C         140.9746  140.2184  165.0637 C.ar    1  UNL1       -0.0049
     18 C         142.0422  139.2886  164.5679 C.ar    1  UNL1       -0.0029
     19 C         141.7462  137.8276  164.4014 C.ar    1  UNL1       -0.0003
     20 C         140.3827  137.2963  164.7306 C.ar    1  UNL1       -0.0000
     21 C         139.3150  138.2260  165.2264 C.ar    1  UNL1       -0.0003
     22 C         139.6110  139.6871  165.3929 C.ar    1  UNL1       -0.0029
     23 N         140.3847  142.7026  164.5833 N.3     1  UNL1       -0.2636
     24 C         140.1733  142.6803  163.0985 C.3     1  UNL1        0.1049
     25 C         139.2875  143.7034  162.4515 C.3     1  UNL1        0.1595
     26 O         138.6131  144.7489  163.2895 O.3     1  UNL1       -0.3508
     27 C         138.8245  144.7712  164.7744 C.3     1  UNL1        0.1595
     28 C         139.7103  143.7480  165.4213 C.3     1  UNL1        0.1049
@<TRIPOS>BOND
     1     1     2    1
     2     2     4    1
     3     4     5   ar
     4     5     6   ar
     5     6     7   ar
     6     7     8   ar
     7     8     9   ar
     8     2    10    1
     9    10    11   ar
    10    11    12   ar
    11    12    13   ar
    12    13    14   ar
    13    14    15   ar
    14     2    16    1
    15    16    17    1
    16    17    18   ar
    17    18    19   ar
    18    19    20   ar
    19    20    21   ar
    20    21    22   ar
    21    16    23    1
    22    23    24    1
    23    24    25    1
    24    25    26    1
    25    26    27    1
    26    27    28    1
    27     9     4   ar
    28    15    10   ar
    29    22    17   ar
    30    28    23    1
    31     1     3    1
@<TRIPOS>MOLECULE
*****
 28 31 0 0 0
SMALL
GASTEIGER

@<TRIPOS>ATOM
      1 O         142.4165  139.4937  166.7163 O.3     1  UNL1       -0.3768
      2 C         141.7198  140.0542  165.5120 C.3     1  UNL1        0.1456
      3 H         141.9339  139.7503  167.5176 H       1  UNL1        0.2112
      4 C         140.4162  139.5037  166.0100 C.ar    1  UNL1        0.0264
      5 C         139.6929  138.4558  165.2172 C.ar    1  UNL1        0.0015
      6 C         138.3894  137.9054  165.7152 C.ar    1  UNL1        0.0204
      7 C         137.8094  138.4029  167.0059 C.ar    1  UNL1        0.0989
      8 N         138.5327  139.4508  167.7987 N.ar    1  UNL1       -0.2426
      9 C         139.8362  140.0013  167.3007 C.ar    1  UNL1        0.0972
     10 C         143.0232  140.6047  165.0141 C.ar    1  UNL1        0.0264
     11 C         143.2939  142.0780  165.0921 C.ar    1  UNL1        0.0015
     12 C         144.5975  142.6284  164.5941 C.ar    1  UNL1        0.0204
     13 C         145.6303  141.7055  164.0183 C.ar    1  UNL1        0.0989
     14 N         145.3596  140.2322  163.9404 N.ar    1  UNL1       -0.2426
     15 C         144.0561  139.6818  164.4382 C.ar    1  UNL1        0.0972
     16 C         141.0231  140.6148  164.3077 C.3     1  UNL1        0.1131
     17 C         139.9956  141.6953  164.4710 C.ar    1  UNL1       -0.0049
     18 C         138.6359  141.5362  163.8580 C.ar    1  UNL1       -0.0029
     19 C         137.6084  142.6167  164.0212 C.ar    1  UNL1       -0.0003
     20 C         137.9406  143.8565  164.7974 C.ar    1  UNL1       -0.0000
     21 C         139.3003  144.0157  165.4105 C.ar    1  UNL1       -0.0003
     22 C         140.3278  142.9352  165.2473 C.ar    1  UNL1       -0.0029
     23 N         141.3538  140.0948  162.9401 N.3     1  UNL1       -0.2636
     24 C         141.7667  141.0455  161.8559 C.3     1  UNL1        0.1049
     25 C         142.0974  140.5256  160.4883 C.3     1  UNL1        0.1595
     26 O         142.0153  139.0548  160.2050 O.3     1  UNL1       -0.3508
     27 C         141.6024  138.1041  161.2893 C.3     1  UNL1        0.1595
     28 C         141.2717  138.6241  162.6569 C.3     1  UNL1        0.1049
@<TRIPOS>BOND
     1     1     2    1
     2     2     4    1
     3     4     5   ar
     4     5     6   ar
     5     6     7   ar
     6     7     8   ar
     7     8     9   ar
     8     2    10    1
     9    10    11   ar
    10    11    12   ar
    11    12    13   ar
    12    13    14   ar
    13    14    15   ar
    14     2    16    1
    15    16    17    1
    16    17    18   ar
    17    18    19   ar
    18    19    20   ar
    19    20    21   ar
    20    21    22   ar
    21    16    23    1
    22    23    24    1
    23    24    25    1
    24    25    26    1
    25    26    27    1
    26    27    28    1
    27     9     4   ar
    28    15    10   ar
    29    22    17   ar
    30    28    23    1
    31     1     3    1
@<TRIPOS>MOLECULE
*****
 28 31 0 0 0
SMALL
GASTEIGER

@<TRIPOS>ATOM
      1 O         138.3326  142.8818  164.6618 O.3     1  UNL1       -0.3768
      2 C         139.5836  142.1098  164.3635 C.3     1  UNL1        0.1456
      3 H         138.5563  143.8131  164.8150 H       1  UNL1        0.2112
      4 C         139.9735  143.1365  163.3417 C.ar    1  UNL1        0.0264
      5 C         140.4979  144.4711  163.7818 C.ar    1  UNL1        0.0015
      6 C         140.8878  145.4977  162.7601 C.ar    1  UNL1        0.0204
      7 C         140.7533  145.1897  161.2982 C.ar    1  UNL1        0.0989
      8 N         140.2288  143.8551  160.8581 N.ar    1  UNL1       -0.2426
      9 C         139.8390  142.8284  161.8799 C.ar    1  UNL1        0.0972
     10 C         139.1937  141.0831  165.3852 C.ar    1  UNL1        0.0264
     11 C         139.8755  141.0578  166.7210 C.ar    1  UNL1        0.0015
     12 C         139.4856  140.0311  167.7428 C.ar    1  UNL1        0.0204
     13 C         138.4138  139.0298  167.4287 C.ar    1  UNL1        0.0989
     14 N         137.7319  139.0552  166.0929 N.ar    1  UNL1       -0.2426
     15 C         138.1218  140.0818  165.0711 C.ar    1  UNL1        0.0972
     16 C         140.8346  141.3377  164.0652 C.3     1  UNL1        0.1131
     17 C         142.1767  141.9523  164.3317 C.ar    1  UNL1       -0.0049
     18 C         142.5331  142.4036  165.7171 C.ar    1  UNL1       -0.0029
     19 C         143.8752  143.0182  165.9836 C.ar    1  UNL1       -0.0003
     20 C         144.8609  143.1813  164.8648 C.ar    1  UNL1       -0.0000
     21 C         144.5045  142.7300  163.4794 C.ar    1  UNL1       -0.0003
     22 C         143.1624  142.1154  163.2128 C.ar    1  UNL1       -0.0029
     23 N         140.7434  139.9511  163.5003 N.3     1  UNL1       -0.2636
     24 C         139.9909  139.7085  162.2256 C.3     1  UNL1        0.1049
     25 C         139.8998  138.3220  161.6607 C.3     1  UNL1        0.1595
     26 O         140.5612  137.1779  162.3705 O.3     1  UNL1       -0.3508
     27 C         141.3137  137.4205  163.6452 C.3     1  UNL1        0.1595
     28 C         141.4048  138.8071  164.2101 C.3     1  UNL1        0.1049
@<TRIPOS>BOND
     1     1     2    1
     2     2     4    1
     3     4     5   ar
     4     5     6   ar
     5     6     7   ar
     6     7     8   ar
     7     8     9   ar
     8     2    10    1
     9    10    11   ar
    10    11    12   ar
    11    12    13   ar
    12    13    14   ar
    13    14    15   ar
    14     2    16    1
    15    16    17    1
    16    17    18   ar
    17    18    19   ar
    18    19    20   ar
    19    20    21   ar
    20    21    22   ar
    21    16    23    1
    22    23    24    1
    23    24    25    1
    24    25    26    1
    25    26    27    1
    26    27    28    1
    27     9     4   ar
    28    15    10   ar
    29    22    17   ar
    30    28    23    1
    31     1     3    1
@<TRIPOS>MOLECULE
*****
 28 31 0 0 0
SMALL
GASTEIGER

@<TRIPOS>ATOM
      1 O         138.3348  142.8810  164.6617 O.3     1  UNL1       -0.3768
      2 C         139.5855  142.1084  164.3635 C.3     1  UNL1        0.1456
      3 H         137.5717  142.2827  164.6380 H       1  UNL1        0.2112
      4 C         139.1957  141.0828  165.3865 C.ar    1  UNL1        0.0264
      5 C         139.8784  141.0583  166.7218 C.ar    1  UNL1        0.0015
      6 C         139.4886  140.0328  167.7447 C.ar    1  UNL1        0.0204
      7 C         138.4160  139.0318  167.4322 C.ar    1  UNL1        0.0989
      8 N         137.7333  139.0563  166.0969 N.ar    1  UNL1       -0.2426
      9 C         138.1231  140.0818  165.0740 C.ar    1  UNL1        0.0972
     10 C         139.9752  143.1339  163.3407 C.ar    1  UNL1        0.0264
     11 C         140.4996  144.4691  163.7793 C.ar    1  UNL1        0.0015
     12 C         140.8894  145.4946  162.7563 C.ar    1  UNL1        0.0204
     13 C         140.7547  145.1850  161.2948 C.ar    1  UNL1        0.0989
     14 N         140.2303  143.8499  160.8562 N.ar    1  UNL1       -0.2426
     15 C         139.8405  142.8243  161.8791 C.ar    1  UNL1        0.0972
     16 C         140.8361  141.3358  164.0654 C.3     1  UNL1        0.1131
     17 C         142.1785  141.9499  164.3314 C.ar    1  UNL1       -0.0049
     18 C         143.1644  142.1112  163.2126 C.ar    1  UNL1       -0.0029
     19 C         144.5068  142.7254  163.4786 C.ar    1  UNL1       -0.0003
     20 C         144.8633  143.1783  164.8634 C.ar    1  UNL1       -0.0000
     21 C         143.8773  143.0171  165.9823 C.ar    1  UNL1       -0.0003
     22 C         142.5349  142.4029  165.7163 C.ar    1  UNL1       -0.0029
     23 N         140.7444  139.9489  163.5013 N.3     1  UNL1       -0.2636
     24 C         141.4075  138.8054  164.2104 C.3     1  UNL1        0.1049
     25 C         141.3158  137.4186  163.6463 C.3     1  UNL1        0.1595
     26 O         140.5609  137.1751  162.3731 O.3     1  UNL1       -0.3508
     27 C         139.8978  138.3186  161.6640 C.3     1  UNL1        0.1595
     28 C         139.9896  139.7055  162.2281 C.3     1  UNL1        0.1049
@<TRIPOS>BOND
     1     1     2    1
     2     2     4    1
     3     4     5   ar
     4     5     6   ar
     5     6     7   ar
     6     7     8   ar
     7     8     9   ar
     8     2    10    1
     9    10    11   ar
    10    11    12   ar
    11    12    13   ar
    12    13    14   ar
    13    14    15   ar
    14     2    16    1
    15    16    17    1
    16    17    18   ar
    17    18    19   ar
    18    19    20   ar
    19    20    21   ar
    20    21    22   ar
    21    16    23    1
    22    23    24    1
    23    24    25    1
    24    25    26    1
    25    26    27    1
    26    27    28    1
    27     9     4   ar
    28    15    10   ar
    29    22    17   ar
    30    28    23    1
    31     1     3    1
