@<TRIPOS>MOLECULE
*****
 31 35 0 0 0
SMALL
GASTEIGER

@<TRIPOS>ATOM
      1 C         143.6936  138.3855  162.4995 C.3     1  UNL1        0.0731
      2 N         139.8111  139.3678  166.0824 N.pl3   1  UNL1       -0.3077
      3 C         138.6294  138.4568  165.9289 C.3     1  UNL1        0.0909
      4 C         138.9078  137.5252  164.7867 C.3     1  UNL1        0.0245
      5 C         140.2614  137.8605  164.2343 C.3     1  UNL1        0.0372
      6 C         141.2701  137.4919  163.1870 C.3     1  UNL1        0.0738
      7 N         142.4517  138.4030  163.3405 N.3     1  UNL1       -0.2712
      8 C         142.1734  139.3346  164.4827 C.3     1  UNL1        0.0921
      9 C         140.8197  138.9993  165.0351 C.3     1  UNL1        0.0901
     10 C         140.4000  143.7219  170.1685 C.3     1  UNL1        0.0310
     11 C         140.2528  142.6334  169.1470 C.ar    1  UNL1       -0.0218
     12 C         139.7287  141.2883  169.5545 C.ar    1  UNL1       -0.0030
     13 C         139.5815  140.1998  168.5329 C.ar    1  UNL1        0.0142
     14 C         139.9584  140.4564  167.1039 C.ar    1  UNL1        0.0478
     15 C         140.4825  141.8014  166.6964 C.ar    1  UNL1        0.0142
     16 C         140.6297  142.8899  167.7179 C.ar    1  UNL1       -0.0030
     17 C         143.6669  137.7624  161.1353 C.3     1  UNL1        0.0294
     18 C         143.3044  138.5915  159.9390 C.3     1  UNL1        0.0666
     19 S         141.9519  138.4449  159.3069 S.3     1  UNL1       -0.0756
     20 C         140.7345  138.9671  160.0106 C.ar    1  UNL1        0.1933
     21 N         139.4033  138.2812  160.0959 N.ar    1  UNL1       -0.1221
     22 N         138.4806  139.1570  160.8906 N.ar    1  UNL1       -0.1266
     23 C         139.2416  140.3843  161.2965 C.ar    1  UNL1        0.1862
     24 N         140.6346  140.2669  160.7526 N.ar    1  UNL1       -0.2872
     25 C         141.7346  141.2727  160.9212 C.3     1  UNL1        0.1340
     26 C         138.7041  141.5281  162.1044 C.ar    1  UNL1        0.1362
     27 C         138.4557  142.8557  161.4520 C.ar    1  UNL1        0.1211
     28 N         137.9181  143.9995  162.2600 N.ar    1  UNL1       -0.2390
     29 C         137.6290  143.8157  163.7204 C.ar    1  UNL1        0.1195
     30 C         137.8775  142.4880  164.3728 C.ar    1  UNL1        0.1196
     31 N         138.4150  141.3442  163.5649 N.ar    1  UNL1       -0.2375
@<TRIPOS>BOND
     1    10    11    1
     2    11    12   ar
     3    12    13   ar
     4    13    14   ar
     5    14     2    1
     6     2     3    1
     7     3     4    1
     8     4     5    1
     9     5     6    1
    10     6     7    1
    11     7     1    1
    12     1    17    1
    13    17    18    1
    14    18    19    1
    15    19    20    1
    16    20    21   ar
    17    21    22   ar
    18    22    23   ar
    19    23    26    1
    20    26    27   ar
    21    27    28   ar
    22    28    29   ar
    23    29    30   ar
    24    30    31   ar
    25    23    24   ar
    26    24    25    1
    27     7     8    1
    28     8     9    1
    29    14    15   ar
    30    15    16   ar
    31    16    11   ar
    32     9     2    1
    33     9     5    1
    34    24    20   ar
    35    31    26   ar
@<TRIPOS>MOLECULE
*****
 31 35 0 0 0
SMALL
GASTEIGER

@<TRIPOS>ATOM
      1 C         141.2197  145.2755  160.1678 C.3     1  UNL1        0.0731
      2 N         140.5753  142.9222  164.9555 N.pl3   1  UNL1       -0.3077
      3 C         139.5422  143.5998  165.8060 C.3     1  UNL1        0.0909
      4 C         138.9926  144.7605  165.0310 C.3     1  UNL1        0.0245
      5 C         139.6861  144.8003  163.7015 C.3     1  UNL1        0.0372
      6 C         139.7751  145.5422  162.4009 C.3     1  UNL1        0.0738
      7 N         140.8083  144.8646  161.5505 N.3     1  UNL1       -0.2712
      8 C         141.3578  143.7038  162.3254 C.3     1  UNL1        0.0921
      9 C         140.6643  143.6641  163.6549 C.3     1  UNL1        0.0901
     10 C         143.7882  138.0918  166.4871 C.3     1  UNL1        0.0310
     11 C         142.9850  139.2994  166.1042 C.ar    1  UNL1       -0.0218
     12 C         142.5622  140.2829  167.1549 C.ar    1  UNL1       -0.0030
     13 C         141.7590  141.4905  166.7719 C.ar    1  UNL1        0.0142
     14 C         141.3785  141.7146  165.3384 C.ar    1  UNL1        0.0478
     15 C         141.8013  140.7310  164.2877 C.ar    1  UNL1        0.0142
     16 C         142.6045  139.5234  164.6707 C.ar    1  UNL1       -0.0030
     17 C         140.4692  144.7574  158.9769 C.3     1  UNL1        0.0294
     18 C         140.3494  143.2794  158.7507 C.3     1  UNL1        0.0666
     19 S         139.0288  142.5953  158.9466 S.3     1  UNL1       -0.0756
     20 C         138.5729  142.2261  160.3271 C.ar    1  UNL1        0.1933
     21 N         137.6410  143.0236  161.1906 N.ar    1  UNL1       -0.1221
     22 N         137.4609  142.2850  162.4837 N.ar    1  UNL1       -0.1266
     23 C         138.2816  141.0310  162.4193 C.ar    1  UNL1        0.1862
     24 N         138.9688  140.9947  161.0865 N.ar    1  UNL1       -0.2872
     25 C         139.8901  139.9161  160.5988 C.3     1  UNL1        0.1340
     26 C         138.3951  139.9953  163.4984 C.ar    1  UNL1        0.1362
     27 C         138.7511  138.5814  163.1463 C.ar    1  UNL1        0.1211
     28 N         138.8646  137.5456  164.2254 N.ar    1  UNL1       -0.2390
     29 C         138.6221  137.9238  165.6566 C.ar    1  UNL1        0.1195
     30 C         138.2661  139.3378  166.0086 C.ar    1  UNL1        0.1196
     31 N         138.1526  140.3736  164.9296 N.ar    1  UNL1       -0.2375
@<TRIPOS>BOND
     1    10    11    1
     2    11    12   ar
     3    12    13   ar
     4    13    14   ar
     5    14     2    1
     6     2     3    1
     7     3     4    1
     8     4     5    1
     9     5     6    1
    10     6     7    1
    11     7     1    1
    12     1    17    1
    13    17    18    1
    14    18    19    1
    15    19    20    1
    16    20    21   ar
    17    21    22   ar
    18    22    23   ar
    19    23    26    1
    20    26    27   ar
    21    27    28   ar
    22    28    29   ar
    23    29    30   ar
    24    30    31   ar
    25    23    24   ar
    26    24    25    1
    27     7     8    1
    28     8     9    1
    29    14    15   ar
    30    15    16   ar
    31    16    11   ar
    32     9     2    1
    33     9     5    1
    34    24    20   ar
    35    31    26   ar
@<TRIPOS>MOLECULE
*****
 31 35 0 0 0
SMALL
GASTEIGER

@<TRIPOS>ATOM
      1 C         138.4960  137.7959  162.8386 C.3     1  UNL1        0.0731
      2 N         141.6006  139.6431  166.8167 N.pl3   1  UNL1       -0.3077
      3 C         143.0229  139.1780  166.7127 C.3     1  UNL1        0.0909
      4 C         143.1400  138.3145  165.4918 C.3     1  UNL1        0.0245
      5 C         141.7902  138.2459  164.8413 C.3     1  UNL1        0.0372
      6 C         141.0283  137.6698  163.6846 C.3     1  UNL1        0.0738
      7 N         139.6061  138.1349  163.7887 N.3     1  UNL1       -0.2712
      8 C         139.4889  138.9984  165.0096 C.3     1  UNL1        0.0921
      9 C         140.8387  139.0670  165.6601 C.3     1  UNL1        0.0901
     10 C         139.3531  143.1856  171.1062 C.3     1  UNL1        0.0310
     11 C         139.9149  142.3000  170.0339 C.ar    1  UNL1       -0.0218
     12 C         139.3513  140.9258  169.8243 C.ar    1  UNL1       -0.0030
     13 C         139.9132  140.0402  168.7519 C.ar    1  UNL1        0.0142
     14 C         141.0387  140.5287  167.8891 C.ar    1  UNL1        0.0478
     15 C         141.6024  141.9029  168.0986 C.ar    1  UNL1        0.0142
     16 C         141.0404  142.7885  169.1710 C.ar    1  UNL1       -0.0030
     17 C         138.5531  138.2728  161.4176 C.3     1  UNL1        0.0294
     18 C         137.6191  139.3491  160.9495 C.3     1  UNL1        0.0666
     19 S         138.1633  140.6782  160.5166 S.3     1  UNL1       -0.0756
     20 C         138.7908  141.5958  161.5237 C.ar    1  UNL1        0.1933
     21 N         138.0722  142.6185  162.3529 N.ar    1  UNL1       -0.1221
     22 N         139.0844  143.3065  163.2202 N.ar    1  UNL1       -0.1266
     23 C         140.4286  142.7090  162.9270 C.ar    1  UNL1        0.1862
     24 N         140.2472  141.6517  161.8786 N.ar    1  UNL1       -0.2872
     25 C         141.3318  140.7999  161.2885 C.3     1  UNL1        0.1340
     26 C         141.7264  143.1001  163.5695 C.ar    1  UNL1        0.1362
     27 C         142.3629  144.4161  163.2337 C.ar    1  UNL1        0.1211
     28 N         143.6607  144.8071  163.8762 N.ar    1  UNL1       -0.2390
     29 C         144.3220  143.8821  164.8545 C.ar    1  UNL1        0.1195
     30 C         143.6855  142.5660  165.1902 C.ar    1  UNL1        0.1196
     31 N         142.3877  142.1749  164.5478 N.ar    1  UNL1       -0.2375
@<TRIPOS>BOND
     1    10    11    1
     2    11    12   ar
     3    12    13   ar
     4    13    14   ar
     5    14     2    1
     6     2     3    1
     7     3     4    1
     8     4     5    1
     9     5     6    1
    10     6     7    1
    11     7     1    1
    12     1    17    1
    13    17    18    1
    14    18    19    1
    15    19    20    1
    16    20    21   ar
    17    21    22   ar
    18    22    23   ar
    19    23    26    1
    20    26    27   ar
    21    27    28   ar
    22    28    29   ar
    23    29    30   ar
    24    30    31   ar
    25    23    24   ar
    26    24    25    1
    27     7     8    1
    28     8     9    1
    29    14    15   ar
    30    15    16   ar
    31    16    11   ar
    32     9     2    1
    33     9     5    1
    34    24    20   ar
    35    31    26   ar
@<TRIPOS>MOLECULE
*****
 31 35 0 0 0
SMALL
GASTEIGER

@<TRIPOS>ATOM
      1 C         137.7439  143.2206  162.3800 C.3     1  UNL1        0.0731
      2 N         139.7676  139.1680  165.2709 N.pl3   1  UNL1       -0.3077
      3 C         139.5218  137.8256  164.6484 C.3     1  UNL1        0.0909
      4 C         138.7634  138.0386  163.3718 C.3     1  UNL1        0.0245
      5 C         138.5405  139.5126  163.2054 C.3     1  UNL1        0.0372
      6 C         137.9341  140.5552  162.3137 C.3     1  UNL1        0.0738
      7 N         138.1799  141.8975  162.9363 N.3     1  UNL1       -0.2712
      8 C         138.9382  141.6846  164.2128 C.3     1  UNL1        0.0921
      9 C         139.1611  140.2106  164.3792 C.3     1  UNL1        0.0901
     10 C         142.6674  140.1882  170.4237 C.3     1  UNL1        0.0310
     11 C         141.9424  139.9332  169.1355 C.ar    1  UNL1       -0.0218
     12 C         140.4566  140.1246  169.0605 C.ar    1  UNL1       -0.0030
     13 C         139.7317  139.8695  167.7722 C.ar    1  UNL1        0.0142
     14 C         140.4925  139.4231  166.5591 C.ar    1  UNL1        0.0478
     15 C         141.9784  139.2317  166.6341 C.ar    1  UNL1        0.0142
     16 C         142.7033  139.4868  167.9223 C.ar    1  UNL1       -0.0030
     17 C         138.2363  144.4942  163.0008 C.3     1  UNL1        0.0294
     18 C         138.7220  145.6144  162.1294 C.3     1  UNL1        0.0666
     19 S         140.1814  145.9598  162.0957 S.3     1  UNL1       -0.0756
     20 C         141.1998  144.8887  161.8400 C.ar    1  UNL1        0.1933
     21 N         141.7876  144.5311  160.5071 N.ar    1  UNL1       -0.1221
     22 N         142.7604  143.4085  160.7155 N.ar    1  UNL1       -0.1266
     23 C         142.7738  143.0722  162.1773 C.ar    1  UNL1        0.1862
     24 N         141.8093  143.9870  162.8722 N.ar    1  UNL1       -0.2872
     25 C         141.5074  143.9982  164.3415 C.3     1  UNL1        0.1340
     26 C         143.6057  142.0080  162.8296 C.ar    1  UNL1        0.1362
     27 C         143.0567  140.6217  162.9927 C.ar    1  UNL1        0.1211
     28 N         143.8886  139.5575  163.6450 N.ar    1  UNL1       -0.2390
     29 C         145.2695  139.8797  164.1342 C.ar    1  UNL1        0.1195
     30 C         145.8185  141.2661  163.9711 C.ar    1  UNL1        0.1196
     31 N         144.9867  142.3303  163.3188 N.ar    1  UNL1       -0.2375
@<TRIPOS>BOND
     1    10    11    1
     2    11    12   ar
     3    12    13   ar
     4    13    14   ar
     5    14     2    1
     6     2     3    1
     7     3     4    1
     8     4     5    1
     9     5     6    1
    10     6     7    1
    11     7     1    1
    12     1    17    1
    13    17    18    1
    14    18    19    1
    15    19    20    1
    16    20    21   ar
    17    21    22   ar
    18    22    23   ar
    19    23    26    1
    20    26    27   ar
    21    27    28   ar
    22    28    29   ar
    23    29    30   ar
    24    30    31   ar
    25    23    24   ar
    26    24    25    1
    27     7     8    1
    28     8     9    1
    29    14    15   ar
    30    15    16   ar
    31    16    11   ar
    32     9     2    1
    33     9     5    1
    34    24    20   ar
    35    31    26   ar
@<TRIPOS>MOLECULE
*****
 31 35 0 0 0
SMALL
GASTEIGER

@<TRIPOS>ATOM
      1 C         137.9605  139.3983  162.2994 C.3     1  UNL1        0.0731
      2 N         139.5542  143.1955  165.7515 N.pl3   1  UNL1       -0.3077
      3 C         138.8289  144.4954  165.5669 C.3     1  UNL1        0.0909
      4 C         137.8533  144.3259  164.4402 C.3     1  UNL1        0.0245
      5 C         137.9756  142.9211  163.9285 C.3     1  UNL1        0.0372
      6 C         137.4482  141.9482  162.9160 C.3     1  UNL1        0.0738
      7 N         138.1735  140.6483  163.1007 N.3     1  UNL1       -0.2712
      8 C         139.1491  140.8178  164.2273 C.3     1  UNL1        0.0921
      9 C         139.0268  142.2225  164.7390 C.3     1  UNL1        0.0901
     10 C         143.8168  142.0827  169.8249 C.3     1  UNL1        0.0310
     11 C         142.7512  142.3609  168.8066 C.ar    1  UNL1       -0.0218
     12 C         143.0385  142.1643  167.3475 C.ar    1  UNL1       -0.0030
     13 C         141.9728  142.4426  166.3292 C.ar    1  UNL1        0.0142
     14 C         140.6198  142.9173  166.7699 C.ar    1  UNL1        0.0478
     15 C         140.3325  143.1138  168.2289 C.ar    1  UNL1        0.0142
     16 C         141.3982  142.8356  169.2472 C.ar    1  UNL1       -0.0030
     17 C         138.5349  138.0964  162.7737 C.3     1  UNL1        0.0294
     18 C         139.8446  137.6109  162.2269 C.3     1  UNL1        0.0666
     19 S         141.1322  138.1624  162.7638 S.3     1  UNL1       -0.0756
     20 C         142.2487  138.5102  161.8245 C.ar    1  UNL1        0.1933
     21 N         143.6030  137.8663  161.7879 N.ar    1  UNL1       -0.1221
     22 N         144.3983  138.5211  160.6976 N.ar    1  UNL1       -0.1266
     23 C         143.5356  139.5697  160.0604 C.ar    1  UNL1        0.1862
     24 N         142.2071  139.5630  160.7568 N.ar    1  UNL1       -0.2872
     25 C         141.0416  140.4528  160.4410 C.3     1  UNL1        0.1340
     26 C         143.9318  140.4674  158.9259 C.ar    1  UNL1        0.1362
     27 C         144.0941  141.9406  159.1567 C.ar    1  UNL1        0.1211
     28 N         144.4903  142.8383  158.0221 N.ar    1  UNL1       -0.2390
     29 C         144.7241  142.2628  156.6568 C.ar    1  UNL1        0.1195
     30 C         144.5618  140.7896  156.4260 C.ar    1  UNL1        0.1196
     31 N         144.1656  139.8919  157.5605 N.ar    1  UNL1       -0.2375
@<TRIPOS>BOND
     1    10    11    1
     2    11    12   ar
     3    12    13   ar
     4    13    14   ar
     5    14     2    1
     6     2     3    1
     7     3     4    1
     8     4     5    1
     9     5     6    1
    10     6     7    1
    11     7     1    1
    12     1    17    1
    13    17    18    1
    14    18    19    1
    15    19    20    1
    16    20    21   ar
    17    21    22   ar
    18    22    23   ar
    19    23    26    1
    20    26    27   ar
    21    27    28   ar
    22    28    29   ar
    23    29    30   ar
    24    30    31   ar
    25    23    24   ar
    26    24    25    1
    27     7     8    1
    28     8     9    1
    29    14    15   ar
    30    15    16   ar
    31    16    11   ar
    32     9     2    1
    33     9     5    1
    34    24    20   ar
    35    31    26   ar
@<TRIPOS>MOLECULE
*****
 31 35 0 0 0
SMALL
GASTEIGER

@<TRIPOS>ATOM
      1 C         139.0958  138.0123  161.2348 C.3     1  UNL1        0.0731
      2 N         142.4213  139.1583  165.2972 N.pl3   1  UNL1       -0.3077
      3 C         143.8643  139.1657  164.8876 C.3     1  UNL1        0.0909
      4 C         143.9325  138.8406  163.4248 C.3     1  UNL1        0.0245
      5 C         142.5317  138.6322  162.9305 C.3     1  UNL1        0.0372
      6 C         141.7081  138.3025  161.7209 C.3     1  UNL1        0.0738
      7 N         140.2652  138.2951  162.1306 N.3     1  UNL1       -0.2712
      8 C         140.1970  138.6203  163.5933 C.3     1  UNL1        0.0921
      9 C         141.5977  138.8286  164.0877 C.3     1  UNL1        0.0901
     10 C         140.3136  140.2551  170.8068 C.3     1  UNL1        0.0310
     11 C         140.8405  139.9809  169.4294 C.ar    1  UNL1       -0.0218
     12 C         139.9537  140.1734  168.2351 C.ar    1  UNL1       -0.0030
     13 C         140.4807  139.8992  166.8577 C.ar    1  UNL1        0.0142
     14 C         141.8944  139.4325  166.6746 C.ar    1  UNL1        0.0478
     15 C         142.7813  139.2401  167.8689 C.ar    1  UNL1        0.0142
     16 C         142.2543  139.5143  169.2463 C.ar    1  UNL1       -0.0030
     17 C         137.8125  138.7674  161.4159 C.3     1  UNL1        0.0294
     18 C         137.3792  139.7678  160.3857 C.3     1  UNL1        0.0666
     19 S         138.2150  140.9859  160.1250 S.3     1  UNL1       -0.0756
     20 C         138.7736  141.7721  161.2739 C.ar    1  UNL1        0.1933
     21 N         137.9771  142.4383  162.3564 N.ar    1  UNL1       -0.1221
     22 N         138.9379  143.1080  163.2936 N.ar    1  UNL1       -0.1266
     23 C         140.3283  142.8557  162.7903 C.ar    1  UNL1        0.1862
     24 N         140.2267  142.0301  161.5421 N.ar    1  UNL1       -0.2872
     25 C         141.3764  141.5472  160.7084 C.3     1  UNL1        0.1340
     26 C         141.5974  143.3434  163.4239 C.ar    1  UNL1        0.1362
     27 C         142.1962  142.5939  164.5769 C.ar    1  UNL1        0.1211
     28 N         143.4654  143.0817  165.2105 N.ar    1  UNL1       -0.2390
     29 C         144.1356  144.3190  164.6911 C.ar    1  UNL1        0.1195
     30 C         143.5368  145.0685  163.5380 C.ar    1  UNL1        0.1196
     31 N         142.2676  144.5808  162.9044 N.ar    1  UNL1       -0.2375
@<TRIPOS>BOND
     1    10    11    1
     2    11    12   ar
     3    12    13   ar
     4    13    14   ar
     5    14     2    1
     6     2     3    1
     7     3     4    1
     8     4     5    1
     9     5     6    1
    10     6     7    1
    11     7     1    1
    12     1    17    1
    13    17    18    1
    14    18    19    1
    15    19    20    1
    16    20    21   ar
    17    21    22   ar
    18    22    23   ar
    19    23    26    1
    20    26    27   ar
    21    27    28   ar
    22    28    29   ar
    23    29    30   ar
    24    30    31   ar
    25    23    24   ar
    26    24    25    1
    27     7     8    1
    28     8     9    1
    29    14    15   ar
    30    15    16   ar
    31    16    11   ar
    32     9     2    1
    33     9     5    1
    34    24    20   ar
    35    31    26   ar
@<TRIPOS>MOLECULE
*****
 31 35 0 0 0
SMALL
GASTEIGER

@<TRIPOS>ATOM
      1 C         143.9278  138.3659  161.8161 C.3     1  UNL1        0.0731
      2 N         142.8846  141.6042  165.9755 N.pl3   1  UNL1       -0.3077
      3 C         143.7590  142.8227  166.0018 C.3     1  UNL1        0.0909
      4 C         144.6821  142.7562  164.8214 C.3     1  UNL1        0.0245
      5 C         144.3782  141.4967  164.0655 C.3     1  UNL1        0.0372
      6 C         144.7608  140.6773  162.8688 C.3     1  UNL1        0.0738
      7 N         143.8864  139.4589  162.8426 N.3     1  UNL1       -0.2712
      8 C         142.9633  139.5252  164.0230 C.3     1  UNL1        0.0921
      9 C         143.2672  140.7847  164.7789 C.3     1  UNL1        0.0901
     10 C         138.6071  140.2464  169.9580 C.3     1  UNL1        0.0310
     11 C         139.6765  140.5858  168.9624 C.ar    1  UNL1       -0.0218
     12 C         139.5818  140.0730  167.5559 C.ar    1  UNL1       -0.0030
     13 C         140.6513  140.4125  166.5604 C.ar    1  UNL1        0.0142
     14 C         141.8152  141.2648  166.9712 C.ar    1  UNL1        0.0478
     15 C         141.9099  141.7776  168.3776 C.ar    1  UNL1        0.0142
     16 C         140.8404  141.4381  169.3732 C.ar    1  UNL1       -0.0030
     17 C         143.6577  138.6803  160.3745 C.3     1  UNL1        0.0294
     18 C         142.5613  137.9638  159.6433 C.3     1  UNL1        0.0666
     19 S         141.2264  138.6231  159.4602 S.3     1  UNL1       -0.0756
     20 C         140.5226  139.2313  160.6370 C.ar    1  UNL1        0.1933
     21 N         139.6986  138.4928  161.6496 N.ar    1  UNL1       -0.1221
     22 N         139.1859  139.4899  162.6462 N.ar    1  UNL1       -0.1266
     23 C         139.6932  140.8446  162.2494 C.ar    1  UNL1        0.1862
     24 N         140.5193  140.6848  161.0077 N.ar    1  UNL1       -0.2872
     25 C         141.2192  141.7853  160.2667 C.3     1  UNL1        0.1340
     26 C         139.4220  142.1329  162.9682 C.ar    1  UNL1        0.1362
     27 C         138.0542  142.7463  162.9178 C.ar    1  UNL1        0.1211
     28 N         137.7830  144.0347  163.6366 N.ar    1  UNL1       -0.2390
     29 C         138.8797  144.7096  164.4058 C.ar    1  UNL1        0.1195
     30 C         140.2476  144.0962  164.4563 C.ar    1  UNL1        0.1196
     31 N         140.5188  142.8078  163.7375 N.ar    1  UNL1       -0.2375
@<TRIPOS>BOND
     1    10    11    1
     2    11    12   ar
     3    12    13   ar
     4    13    14   ar
     5    14     2    1
     6     2     3    1
     7     3     4    1
     8     4     5    1
     9     5     6    1
    10     6     7    1
    11     7     1    1
    12     1    17    1
    13    17    18    1
    14    18    19    1
    15    19    20    1
    16    20    21   ar
    17    21    22   ar
    18    22    23   ar
    19    23    26    1
    20    26    27   ar
    21    27    28   ar
    22    28    29   ar
    23    29    30   ar
    24    30    31   ar
    25    23    24   ar
    26    24    25    1
    27     7     8    1
    28     8     9    1
    29    14    15   ar
    30    15    16   ar
    31    16    11   ar
    32     9     2    1
    33     9     5    1
    34    24    20   ar
    35    31    26   ar
@<TRIPOS>MOLECULE
*****
 31 35 0 0 0
SMALL
GASTEIGER

@<TRIPOS>ATOM
      1 C         138.8372  145.4238  162.2515 C.3     1  UNL1        0.0731
      2 N         139.8615  141.6917  165.9794 N.pl3   1  UNL1       -0.3077
      3 C         138.9720  140.4895  165.8634 C.3     1  UNL1        0.0909
      4 C         138.0437  140.7099  164.7060 C.3     1  UNL1        0.0245
      5 C         138.3594  142.0483  164.1068 C.3     1  UNL1        0.0372
      6 C         137.9807  143.0116  163.0212 C.3     1  UNL1        0.0738
      7 N         138.8702  144.2138  163.1373 N.3     1  UNL1       -0.2712
      8 C         139.7986  143.9935  164.2946 C.3     1  UNL1        0.0921
      9 C         139.4829  142.6551  164.8938 C.3     1  UNL1        0.0901
     10 C         144.1768  142.5046  170.0683 C.3     1  UNL1        0.0310
     11 C         143.0980  142.3014  169.0461 C.ar    1  UNL1       -0.0218
     12 C         143.4271  142.3713  167.5843 C.ar    1  UNL1       -0.0030
     13 C         142.3482  142.1680  166.5621 C.ar    1  UNL1        0.0142
     14 C         140.9403  141.8949  167.0017 C.ar    1  UNL1        0.0478
     15 C         140.6112  141.8250  168.4634 C.ar    1  UNL1        0.0142
     16 C         141.6901  142.0282  169.4856 C.ar    1  UNL1       -0.0030
     17 C         140.0973  145.9108  161.5997 C.3     1  UNL1        0.0294
     18 C         140.3345  145.6545  160.1409 C.3     1  UNL1        0.0666
     19 S         141.2548  144.5497  159.7136 S.3     1  UNL1       -0.0756
     20 C         141.2487  143.2420  160.4484 C.ar    1  UNL1        0.1933
     21 N         140.2763  142.1188  160.2413 N.ar    1  UNL1       -0.1221
     22 N         140.6404  141.0106  161.1843 N.ar    1  UNL1       -0.1266
     23 C         141.8379  141.4488  161.9742 C.ar    1  UNL1        0.1862
     24 N         142.2138  142.8279  161.5194 N.ar    1  UNL1       -0.2872
     25 C         143.3546  143.6488  162.0436 C.3     1  UNL1        0.1340
     26 C         142.5368  140.6485  163.0330 C.ar    1  UNL1        0.1362
     27 C         141.7720  139.6403  163.8383 C.ar    1  UNL1        0.1211
     28 N         142.4709  138.8400  164.8971 N.ar    1  UNL1       -0.2390
     29 C         143.9346  139.0480  165.1507 C.ar    1  UNL1        0.1195
     30 C         144.6995  140.0563  164.3454 C.ar    1  UNL1        0.1196
     31 N         144.0006  140.8566  163.2865 N.ar    1  UNL1       -0.2375
@<TRIPOS>BOND
     1    10    11    1
     2    11    12   ar
     3    12    13   ar
     4    13    14   ar
     5    14     2    1
     6     2     3    1
     7     3     4    1
     8     4     5    1
     9     5     6    1
    10     6     7    1
    11     7     1    1
    12     1    17    1
    13    17    18    1
    14    18    19    1
    15    19    20    1
    16    20    21   ar
    17    21    22   ar
    18    22    23   ar
    19    23    26    1
    20    26    27   ar
    21    27    28   ar
    22    28    29   ar
    23    29    30   ar
    24    30    31   ar
    25    23    24   ar
    26    24    25    1
    27     7     8    1
    28     8     9    1
    29    14    15   ar
    30    15    16   ar
    31    16    11   ar
    32     9     2    1
    33     9     5    1
    34    24    20   ar
    35    31    26   ar
@<TRIPOS>MOLECULE
*****
 31 35 0 0 0
SMALL
GASTEIGER

@<TRIPOS>ATOM
      1 C         140.3775  144.5754  161.0368 C.3     1  UNL1        0.0731
      2 N         143.7997  141.6885  164.0085 N.pl3   1  UNL1       -0.3077
      3 C         145.1249  141.4802  163.3375 C.3     1  UNL1        0.0909
      4 C         145.0815  142.1642  162.0032 C.3     1  UNL1        0.0245
      5 C         143.7294  142.7952  161.8496 C.3     1  UNL1        0.0372
      6 C         142.8669  143.6080  160.9300 C.3     1  UNL1        0.0738
      7 N         141.5417  143.8163  161.6011 N.3     1  UNL1       -0.2712
      8 C         141.5851  143.1324  162.9353 C.3     1  UNL1        0.0921
      9 C         142.9372  142.5013  163.0889 C.3     1  UNL1        0.0901
     10 C         142.2248  139.6320  169.4206 C.3     1  UNL1        0.0310
     11 C         142.6185  140.1461  168.0676 C.ar    1  UNL1       -0.0218
     12 C         142.8408  139.1866  166.9362 C.ar    1  UNL1       -0.0030
     13 C         143.2345  139.7008  165.5832 C.ar    1  UNL1        0.0142
     14 C         143.4060  141.1744  165.3615 C.ar    1  UNL1        0.0478
     15 C         143.1837  142.1339  166.4929 C.ar    1  UNL1        0.0142
     16 C         142.7899  141.6197  167.8459 C.ar    1  UNL1       -0.0030
     17 C         140.0975  144.5331  159.5638 C.3     1  UNL1        0.0294
     18 C         139.6776  143.2466  158.9168 C.3     1  UNL1        0.0666
     19 S         138.6490  142.3763  159.5761 S.3     1  UNL1       -0.0756
     20 C         139.0561  141.4258  160.6628 C.ar    1  UNL1        0.1933
     21 N         139.9713  140.2477  160.5066 N.ar    1  UNL1       -0.1221
     22 N         140.1003  139.5803  161.8437 N.ar    1  UNL1       -0.1266
     23 C         139.2648  140.3460  162.8264 C.ar    1  UNL1        0.1862
     24 N         138.6194  141.4865  162.0966 N.ar    1  UNL1       -0.2872
     25 C         137.6990  142.5084  162.6954 C.3     1  UNL1        0.1340
     26 C         139.1030  140.0271  164.2832 C.ar    1  UNL1        0.1362
     27 C         139.6262  140.9751  165.3210 C.ar    1  UNL1        0.1211
     28 N         139.4644  140.6562  166.7779 N.ar    1  UNL1       -0.2390
     29 C         138.7793  139.3892  167.1966 C.ar    1  UNL1        0.1195
     30 C         138.2560  138.4411  166.1587 C.ar    1  UNL1        0.1196
     31 N         138.4178  138.7600  164.7019 N.ar    1  UNL1       -0.2375
@<TRIPOS>BOND
     1    10    11    1
     2    11    12   ar
     3    12    13   ar
     4    13    14   ar
     5    14     2    1
     6     2     3    1
     7     3     4    1
     8     4     5    1
     9     5     6    1
    10     6     7    1
    11     7     1    1
    12     1    17    1
    13    17    18    1
    14    18    19    1
    15    19    20    1
    16    20    21   ar
    17    21    22   ar
    18    22    23   ar
    19    23    26    1
    20    26    27   ar
    21    27    28   ar
    22    28    29   ar
    23    29    30   ar
    24    30    31   ar
    25    23    24   ar
    26    24    25    1
    27     7     8    1
    28     8     9    1
    29    14    15   ar
    30    15    16   ar
    31    16    11   ar
    32     9     2    1
    33     9     5    1
    34    24    20   ar
    35    31    26   ar
