@<TRIPOS>MOLECULE
*****
 30 34 0 0 0
SMALL
GASTEIGER

@<TRIPOS>ATOM
      1 C         139.0697  142.2470  162.2171 C.2     1  UNL1        0.3094
      2 N         138.1993  143.4035  161.8236 N.2     1  UNL1       -0.0400
      3 C         137.7464  144.3882  162.8605 C.2     1  UNL1        0.2366
      4 C         138.1638  144.2164  164.2909 C.2     1  UNL1        0.0661
      5 C         139.0342  143.0599  164.6845 C.2     1  UNL1        0.0782
      6 N         139.6014  142.6348  166.0065 N.2     1  UNL1       -0.2489
      7 C         140.4049  141.3873  165.7866 C.2     1  UNL1        0.0777
      8 C         140.3343  141.0415  164.3287 C.2     1  UNL1        0.0107
      9 C         139.4871  142.0752  163.6476 C.3     1  UNL1        0.1691
     10 C         141.1484  140.6204  166.8397 C.ar    1  UNL1        0.0218
     11 C         140.8154  140.8202  168.2886 C.ar    1  UNL1        0.0313
     12 C         141.5590  140.0533  169.3416 C.ar    1  UNL1        0.1424
     13 F         141.2260  140.2531  170.7905 F       1  UNL1       -0.2041
     14 C         142.6355  139.0866  168.9458 C.ar    1  UNL1        0.0592
     15 C         142.9684  138.8868  167.4970 C.ar    1  UNL1        0.1424
     16 F         144.0450  137.9201  167.1012 F       1  UNL1       -0.2041
     17 C         142.2249  139.6537  166.4439 C.ar    1  UNL1        0.0313
     18 C         140.4285  139.2928  159.1064 C.3     1  UNL1        0.0658
     19 C         139.1375  139.0717  159.8375 C.3     1  UNL1        0.0669
     20 C         138.6846  140.0564  160.8744 C.3     1  UNL1        0.2034
     21 N         139.5226  141.2623  161.1802 N.pl3   1  UNL1       -0.1934
     22 C         140.8136  141.4834  160.4492 C.3     1  UNL1        0.2034
     23 C         141.2666  140.4986  159.4123 C.3     1  UNL1        0.0669
     24 C         142.2401  135.3538  154.9589 C.3     1  UNL1        0.0897
     25 N         141.7872  136.3385  155.9958 N.3     1  UNL1       -0.2691
     26 C         140.3748  136.8435  155.9842 C.3     1  UNL1        0.0897
     27 C         139.9219  137.8283  157.0211 C.3     1  UNL1        0.0896
     28 N         140.8814  138.3080  158.0696 N.3     1  UNL1       -0.2713
     29 C         142.2938  137.8030  158.0811 C.3     1  UNL1        0.0896
     30 C         142.7467  136.8183  157.0443 C.3     1  UNL1        0.0897
@<TRIPOS>BOND
     1    24    25    1
     2    25    26    1
     3    26    27    1
     4    27    28    1
     5    28    18    1
     6    18    19    1
     7    19    20    1
     8    20    21    1
     9    21     1    1
    10     1     2    2
    11     2     3    1
    12     3     4    2
    13     4     5    1
    14     5     6    2
    15     6     7    1
    16     7    10    1
    17    10    11   ar
    18    11    12   ar
    19    12    13    1
    20    12    14   ar
    21    14    15   ar
    22    15    16    1
    23    15    17   ar
    24     7     8    2
    25     8     9    1
    26    21    22    1
    27    22    23    1
    28    28    29    1
    29    29    30    1
    30    30    25    1
    31    23    18    1
    32     9     1    1
    33     9     5    1
    34    17    10   ar
@<TRIPOS>MOLECULE
*****
 30 34 0 0 0
SMALL
GASTEIGER

@<TRIPOS>ATOM
      1 C         142.6396  138.3709  157.5986 C.2     1  UNL1        0.3094
      2 N         142.9512  139.6395  156.8615 N.2     1  UNL1       -0.0400
      3 C         143.6532  139.5843  155.5371 C.2     1  UNL1        0.2366
      4 C         144.0436  138.2604  154.9498 C.2     1  UNL1        0.0661
      5 C         143.7319  136.9917  155.6869 C.2     1  UNL1        0.0782
      6 N         143.9920  135.5511  155.3599 N.2     1  UNL1       -0.2489
      7 C         143.4508  134.7160  156.4822 C.2     1  UNL1        0.0777
      8 C         142.8561  135.6404  157.5029 C.2     1  UNL1        0.0107
      9 C         143.0299  137.0470  157.0113 C.3     1  UNL1        0.1691
     10 C         143.4962  133.2191  156.5687 C.ar    1  UNL1        0.0218
     11 C         144.4797  132.5501  157.4825 C.ar    1  UNL1        0.0313
     12 C         144.5251  131.0534  157.5689 C.ar    1  UNL1        0.1424
     13 F         145.5087  130.3843  158.4828 F       1  UNL1       -0.2041
     14 C         143.5870  130.2255  156.7415 C.ar    1  UNL1        0.0592
     15 C         142.6034  130.8945  155.8277 C.ar    1  UNL1        0.1424
     16 F         141.6653  130.0667  155.0003 F       1  UNL1       -0.2041
     17 C         142.5581  132.3913  155.7413 C.ar    1  UNL1        0.0313
     18 C         140.5335  138.5365  161.5720 C.3     1  UNL1        0.0658
     19 C         139.7752  138.8186  160.3088 C.3     1  UNL1        0.0669
     20 C         140.4773  138.7634  158.9844 C.3     1  UNL1        0.2034
     21 N         141.9376  138.4261  158.9231 N.pl3   1  UNL1       -0.1934
     22 C         142.6958  138.1439  160.1862 C.3     1  UNL1        0.2034
     23 C         141.9938  138.1991  161.5106 C.3     1  UNL1        0.0669
     24 C         137.7254  138.7573  166.8696 C.3     1  UNL1        0.0897
     25 N         138.4274  138.7021  165.5452 N.3     1  UNL1       -0.2691
     26 C         138.3819  139.8838  164.6224 C.3     1  UNL1        0.0897
     27 C         139.0840  139.8285  163.2979 C.3     1  UNL1        0.0896
     28 N         139.8315  138.5917  162.8964 N.3     1  UNL1       -0.2713
     29 C         139.8770  137.4100  163.8192 C.3     1  UNL1        0.0896
     30 C         139.1749  137.4652  165.1436 C.3     1  UNL1        0.0897
@<TRIPOS>BOND
     1    24    25    1
     2    25    26    1
     3    26    27    1
     4    27    28    1
     5    28    18    1
     6    18    19    1
     7    19    20    1
     8    20    21    1
     9    21     1    1
    10     1     2    2
    11     2     3    1
    12     3     4    2
    13     4     5    1
    14     5     6    2
    15     6     7    1
    16     7    10    1
    17    10    11   ar
    18    11    12   ar
    19    12    13    1
    20    12    14   ar
    21    14    15   ar
    22    15    16    1
    23    15    17   ar
    24     7     8    2
    25     8     9    1
    26    21    22    1
    27    22    23    1
    28    28    29    1
    29    29    30    1
    30    30    25    1
    31    23    18    1
    32     9     1    1
    33     9     5    1
    34    17    10   ar
@<TRIPOS>MOLECULE
*****
 30 34 0 0 0
SMALL
GASTEIGER

@<TRIPOS>ATOM
      1 C         139.0679  142.2469  162.2212 C.2     1  UNL1        0.3094
      2 N         138.2007  143.4058  161.8276 N.2     1  UNL1       -0.0400
      3 C         137.7506  144.3918  162.8645 C.2     1  UNL1        0.2366
      4 C         138.1678  144.2189  164.2950 C.2     1  UNL1        0.0661
      5 C         139.0351  143.0601  164.6885 C.2     1  UNL1        0.0782
      6 N         139.6013  142.6335  166.0104 N.2     1  UNL1       -0.2489
      7 C         140.4013  141.3838  165.7904 C.2     1  UNL1        0.0777
      8 C         140.3295  141.0381  164.3326 C.2     1  UNL1        0.0107
      9 C         139.4851  142.0741  163.6516 C.3     1  UNL1        0.1691
     10 C         141.1429  140.6150  166.8435 C.ar    1  UNL1        0.0218
     11 C         142.2302  139.6600  166.4489 C.ar    1  UNL1        0.0313
     12 C         142.9717  138.8911  167.5020 C.ar    1  UNL1        0.1424
     13 F         144.0591  137.9361  167.1074 F       1  UNL1       -0.2041
     14 C         142.6260  139.0773  168.9497 C.ar    1  UNL1        0.0592
     15 C         141.5387  140.0323  169.3443 C.ar    1  UNL1        0.1424
     16 F         141.1929  140.2185  170.7920 F       1  UNL1       -0.2041
     17 C         140.7972  140.8011  168.2912 C.ar    1  UNL1        0.0313
     18 C         140.4181  139.2887  159.1105 C.3     1  UNL1        0.0658
     19 C         139.1640  139.0343  159.8931 C.3     1  UNL1        0.0669
     20 C         138.7139  140.0203  160.9299 C.3     1  UNL1        0.2034
     21 N         139.5180  141.2608  161.1842 N.pl3   1  UNL1       -0.1934
     22 C         140.7721  141.5152  160.4017 C.3     1  UNL1        0.2034
     23 C         141.2222  140.5292  159.3648 C.3     1  UNL1        0.0669
     24 C         142.2183  135.3444  154.9630 C.3     1  UNL1        0.0897
     25 N         141.7683  136.3304  155.9999 N.3     1  UNL1       -0.2691
     26 C         142.7285  136.8056  157.0497 C.3     1  UNL1        0.0897
     27 C         142.2784  137.7917  158.0866 C.3     1  UNL1        0.0896
     28 N         140.8681  138.3026  158.0736 N.3     1  UNL1       -0.2713
     29 C         139.9079  137.8274  157.0237 C.3     1  UNL1        0.0896
     30 C         140.3580  136.8414  155.9869 C.3     1  UNL1        0.0897
@<TRIPOS>BOND
     1    24    25    1
     2    25    26    1
     3    26    27    1
     4    27    28    1
     5    28    18    1
     6    18    19    1
     7    19    20    1
     8    20    21    1
     9    21     1    1
    10     1     2    2
    11     2     3    1
    12     3     4    2
    13     4     5    1
    14     5     6    2
    15     6     7    1
    16     7    10    1
    17    10    11   ar
    18    11    12   ar
    19    12    13    1
    20    12    14   ar
    21    14    15   ar
    22    15    16    1
    23    15    17   ar
    24     7     8    2
    25     8     9    1
    26    21    22    1
    27    22    23    1
    28    28    29    1
    29    29    30    1
    30    30    25    1
    31    23    18    1
    32     9     1    1
    33     9     5    1
    34    17    10   ar
@<TRIPOS>MOLECULE
*****
 30 34 0 0 0
SMALL
GASTEIGER

@<TRIPOS>ATOM
      1 C         142.6117  138.3692  157.5819 C.2     1  UNL1        0.3094
      2 N         142.9188  139.6311  156.8316 N.2     1  UNL1       -0.0400
      3 C         143.6172  139.5643  155.5058 C.2     1  UNL1        0.2366
      4 C         144.0085  138.2355  154.9303 C.2     1  UNL1        0.0661
      5 C         143.7014  136.9735  155.6807 C.2     1  UNL1        0.0782
      6 N         143.9634  135.5302  155.3671 N.2     1  UNL1       -0.2489
      7 C         143.4269  134.7051  156.4991 C.2     1  UNL1        0.0777
      8 C         142.8334  135.6384  157.5123 C.2     1  UNL1        0.0107
      9 C         143.0030  137.0403  157.0065 C.3     1  UNL1        0.1691
     10 C         143.4755  133.2092  156.6000 C.ar    1  UNL1        0.0218
     11 C         142.5268  132.3719  155.7946 C.ar    1  UNL1        0.0313
     12 C         142.5754  130.8762  155.8956 C.ar    1  UNL1        0.1424
     13 F         141.6266  130.0388  155.0902 F       1  UNL1       -0.2041
     14 C         143.5728  130.2177  156.8021 C.ar    1  UNL1        0.0592
     15 C         144.5216  131.0550  157.6075 C.ar    1  UNL1        0.1424
     16 F         145.5190  130.3965  158.5139 F       1  UNL1       -0.2041
     17 C         144.4729  132.5507  157.5065 C.ar    1  UNL1        0.0313
     18 C         140.5165  138.5696  161.5594 C.3     1  UNL1        0.0658
     19 C         141.9778  138.2365  161.4973 C.3     1  UNL1        0.0669
     20 C         142.6761  138.1697  160.1715 C.3     1  UNL1        0.2034
     21 N         141.9133  138.4360  158.9077 N.pl3   1  UNL1       -0.1934
     22 C         140.4521  138.7691  158.9698 C.3     1  UNL1        0.2034
     23 C         139.7537  138.8359  160.2956 C.3     1  UNL1        0.0669
     24 C         137.7231  138.8367  166.8627 C.3     1  UNL1        0.0897
     25 N         138.4214  138.7699  165.5369 N.3     1  UNL1       -0.2691
     26 C         139.1142  137.5075  165.1169 C.3     1  UNL1        0.0897
     27 C         139.8126  137.4408  163.7910 C.3     1  UNL1        0.0896
     28 N         139.8181  138.6364  162.8852 N.3     1  UNL1       -0.2713
     29 C         139.1253  139.8988  163.3052 C.3     1  UNL1        0.0896
     30 C         138.4270  139.9656  164.6310 C.3     1  UNL1        0.0897
@<TRIPOS>BOND
     1    24    25    1
     2    25    26    1
     3    26    27    1
     4    27    28    1
     5    28    18    1
     6    18    19    1
     7    19    20    1
     8    20    21    1
     9    21     1    1
    10     1     2    2
    11     2     3    1
    12     3     4    2
    13     4     5    1
    14     5     6    2
    15     6     7    1
    16     7    10    1
    17    10    11   ar
    18    11    12   ar
    19    12    13    1
    20    12    14   ar
    21    14    15   ar
    22    15    16    1
    23    15    17   ar
    24     7     8    2
    25     8     9    1
    26    21    22    1
    27    22    23    1
    28    28    29    1
    29    29    30    1
    30    30    25    1
    31    23    18    1
    32     9     1    1
    33     9     5    1
    34    17    10   ar
@<TRIPOS>MOLECULE
*****
 30 34 0 0 0
SMALL
GASTEIGER

@<TRIPOS>ATOM
      1 C         142.9444  142.4514  162.0618 C.2     1  UNL1        0.3094
      2 N         143.8254  143.6150  161.7159 N.2     1  UNL1       -0.0400
      3 C         144.1094  144.6718  162.7418 C.2     1  UNL1        0.2366
      4 C         143.5124  144.5649  164.1138 C.2     1  UNL1        0.0661
      5 C         142.6314  143.4012  164.4597 C.2     1  UNL1        0.0782
      6 N         141.9076  143.0301  165.7200 N.2     1  UNL1       -0.2489
      7 C         141.1763  141.7439  165.4729 C.2     1  UNL1        0.0777
      8 C         141.4481  141.3202  164.0600 C.2     1  UNL1        0.0107
      9 C         142.3474  142.3445  163.4338 C.3     1  UNL1        0.1691
     10 C         140.3229  141.0103  166.4648 C.ar    1  UNL1        0.0218
     11 C         140.4534  141.3055  167.9296 C.ar    1  UNL1        0.0313
     12 C         139.6001  140.5719  168.9214 C.ar    1  UNL1        0.1424
     13 F         139.7305  140.8671  170.3863 F       1  UNL1       -0.2041
     14 C         138.6162  139.5432  168.4483 C.ar    1  UNL1        0.0592
     15 C         138.4858  139.2480  166.9835 C.ar    1  UNL1        0.1424
     16 F         137.5019  138.2193  166.5104 F       1  UNL1       -0.2041
     17 C         139.3391  139.9816  165.9917 C.ar    1  UNL1        0.0313
     18 C         142.0924  139.2810  158.9839 C.3     1  UNL1        0.0658
     19 C         141.0794  140.3533  159.2565 C.3     1  UNL1        0.0669
     20 C         141.3635  141.4101  160.2824 C.3     1  UNL1        0.2034
     21 N         142.6604  141.3946  161.0359 N.pl3   1  UNL1       -0.1934
     22 C         143.6733  140.3224  160.7634 C.3     1  UNL1        0.2034
     23 C         143.3893  139.2655  159.7374 C.3     1  UNL1        0.0669
     24 C         140.9562  135.0540  154.8802 C.3     1  UNL1        0.0897
     25 N         141.2403  136.1107  155.9061 N.3     1  UNL1       -0.2691
     26 C         142.5345  136.0915  156.6642 C.3     1  UNL1        0.0897
     27 C         142.8185  137.1483  157.6902 C.3     1  UNL1        0.0896
     28 N         141.8083  138.2243  157.9580 N.3     1  UNL1       -0.2713
     29 C         140.5141  138.2436  157.1999 C.3     1  UNL1        0.0896
     30 C         140.2301  137.1868  156.1740 C.3     1  UNL1        0.0897
@<TRIPOS>BOND
     1    24    25    1
     2    25    26    1
     3    26    27    1
     4    27    28    1
     5    28    18    1
     6    18    19    1
     7    19    20    1
     8    20    21    1
     9    21     1    1
    10     1     2    2
    11     2     3    1
    12     3     4    2
    13     4     5    1
    14     5     6    2
    15     6     7    1
    16     7    10    1
    17    10    11   ar
    18    11    12   ar
    19    12    13    1
    20    12    14   ar
    21    14    15   ar
    22    15    16    1
    23    15    17   ar
    24     7     8    2
    25     8     9    1
    26    21    22    1
    27    22    23    1
    28    28    29    1
    29    29    30    1
    30    30    25    1
    31    23    18    1
    32     9     1    1
    33     9     5    1
    34    17    10   ar
@<TRIPOS>MOLECULE
*****
 30 34 0 0 0
SMALL
GASTEIGER

@<TRIPOS>ATOM
      1 C         140.4219  143.1225  160.7280 C.2     1  UNL1        0.3094
      2 N         140.4214  144.4558  160.0409 N.2     1  UNL1       -0.0400
      3 C         140.1829  145.7073  160.8326 C.2     1  UNL1        0.2366
      4 C         139.9449  145.6255  162.3113 C.2     1  UNL1        0.0661
      5 C         139.9454  144.2922  162.9984 C.2     1  UNL1        0.0782
      6 N         139.7414  143.9018  164.4323 N.2     1  UNL1       -0.2489
      7 C         139.8538  142.4090  164.5268 C.2     1  UNL1        0.0777
      8 C         140.1273  141.8768  163.1514 C.2     1  UNL1        0.0107
      9 C         140.1840  143.0407  162.2068 C.3     1  UNL1        0.1691
     10 C         139.7167  141.5920  165.7773 C.ar    1  UNL1        0.0218
     11 C         140.3617  142.0547  167.0500 C.ar    1  UNL1        0.0313
     12 C         140.2246  141.2376  168.3004 C.ar    1  UNL1        0.1424
     13 F         140.8697  141.7003  169.5732 F       1  UNL1       -0.2041
     14 C         139.4425  139.9579  168.2782 C.ar    1  UNL1        0.0592
     15 C         138.7974  139.4952  167.0055 C.ar    1  UNL1        0.1424
     16 F         138.0152  138.2155  166.9832 F       1  UNL1       -0.2041
     17 C         138.9345  140.3122  165.7551 C.ar    1  UNL1        0.0313
     18 C         141.1376  139.3677  158.3532 C.3     1  UNL1        0.0658
     19 C         142.2962  140.2265  158.7658 C.3     1  UNL1        0.0669
     20 C         142.0576  141.4780  159.5574 C.3     1  UNL1        0.2034
     21 N         140.6605  141.8708  159.9364 N.pl3   1  UNL1       -0.1934
     22 C         139.5019  141.0121  159.5238 C.3     1  UNL1        0.2034
     23 C         139.7405  139.7605  158.7322 C.3     1  UNL1        0.0669
     24 C         142.0920  134.3614  155.1868 C.3     1  UNL1        0.0897
     25 N         141.8534  135.6129  155.9784 N.3     1  UNL1       -0.2691
     26 C         142.8633  136.0633  156.9919 C.3     1  UNL1        0.0897
     27 C         142.6247  137.3150  157.7835 C.3     1  UNL1        0.0896
     28 N         141.3762  138.1161  157.5616 N.3     1  UNL1       -0.2713
     29 C         140.3662  137.6657  156.5481 C.3     1  UNL1        0.0896
     30 C         140.6048  136.4142  155.7565 C.3     1  UNL1        0.0897
@<TRIPOS>BOND
     1    24    25    1
     2    25    26    1
     3    26    27    1
     4    27    28    1
     5    28    18    1
     6    18    19    1
     7    19    20    1
     8    20    21    1
     9    21     1    1
    10     1     2    2
    11     2     3    1
    12     3     4    2
    13     4     5    1
    14     5     6    2
    15     6     7    1
    16     7    10    1
    17    10    11   ar
    18    11    12   ar
    19    12    13    1
    20    12    14   ar
    21    14    15   ar
    22    15    16    1
    23    15    17   ar
    24     7     8    2
    25     8     9    1
    26    21    22    1
    27    22    23    1
    28    28    29    1
    29    29    30    1
    30    30    25    1
    31    23    18    1
    32     9     1    1
    33     9     5    1
    34    17    10   ar
@<TRIPOS>MOLECULE
*****
 30 34 0 0 0
SMALL
GASTEIGER

@<TRIPOS>ATOM
      1 C         140.3444  143.1579  160.7692 C.2     1  UNL1        0.3094
      2 N         140.3267  144.4925  160.0849 N.2     1  UNL1       -0.0400
      3 C         140.0853  145.7405  160.8812 C.2     1  UNL1        0.2366
      4 C         139.8617  145.6538  162.3620 C.2     1  UNL1        0.0661
      5 C         139.8795  144.3192  163.0463 C.2     1  UNL1        0.0782
      6 N         139.6919  143.9244  164.4812 N.2     1  UNL1       -0.2489
      7 C         139.8174  142.4324  164.5717 C.2     1  UNL1        0.0777
      8 C         140.0825  141.9050  163.1927 C.2     1  UNL1        0.0107
      9 C         140.1209  143.0712  162.2499 C.3     1  UNL1        0.1691
     10 C         139.6985  141.6118  165.8217 C.ar    1  UNL1        0.0218
     11 C         138.9265  140.3259  165.8042 C.ar    1  UNL1        0.0313
     12 C         138.8077  139.5053  167.0542 C.ar    1  UNL1        0.1424
     13 F         138.0356  138.2194  167.0367 F       1  UNL1       -0.2041
     14 C         139.4610  139.9707  168.3217 C.ar    1  UNL1        0.0592
     15 C         140.2330  141.2566  168.3393 C.ar    1  UNL1        0.1424
     16 F         140.8863  141.7220  169.6068 F       1  UNL1       -0.2041
     17 C         140.3518  142.0771  167.0893 C.ar    1  UNL1        0.0313
     18 C         141.0686  139.4137  158.3802 C.3     1  UNL1        0.0658
     19 C         142.2100  140.3341  158.6965 C.3     1  UNL1        0.0669
     20 C         141.9686  141.5821  159.4928 C.3     1  UNL1        0.2034
     21 N         140.5858  141.9098  159.9729 N.pl3   1  UNL1       -0.1934
     22 C         139.4444  140.9895  159.6566 C.3     1  UNL1        0.2034
     23 C         139.6857  139.7414  158.8602 C.3     1  UNL1        0.0669
     24 C         142.0342  134.4217  155.1948 C.3     1  UNL1        0.0897
     25 N         141.7927  135.6697  155.9911 N.3     1  UNL1       -0.2691
     26 C         140.5347  136.4599  155.7841 C.3     1  UNL1        0.0897
     27 C         140.2933  137.7080  156.5804 C.3     1  UNL1        0.0896
     28 N         141.3100  138.1657  157.5838 N.3     1  UNL1       -0.2713
     29 C         142.5680  137.3755  157.7909 C.3     1  UNL1        0.0896
     30 C         142.8094  136.1275  156.9946 C.3     1  UNL1        0.0897
@<TRIPOS>BOND
     1    24    25    1
     2    25    26    1
     3    26    27    1
     4    27    28    1
     5    28    18    1
     6    18    19    1
     7    19    20    1
     8    20    21    1
     9    21     1    1
    10     1     2    2
    11     2     3    1
    12     3     4    2
    13     4     5    1
    14     5     6    2
    15     6     7    1
    16     7    10    1
    17    10    11   ar
    18    11    12   ar
    19    12    13    1
    20    12    14   ar
    21    14    15   ar
    22    15    16    1
    23    15    17   ar
    24     7     8    2
    25     8     9    1
    26    21    22    1
    27    22    23    1
    28    28    29    1
    29    29    30    1
    30    30    25    1
    31    23    18    1
    32     9     1    1
    33     9     5    1
    34    17    10   ar
@<TRIPOS>MOLECULE
*****
 30 34 0 0 0
SMALL
GASTEIGER

@<TRIPOS>ATOM
      1 C         144.0192  140.4889  162.2018 C.2     1  UNL1        0.3094
      2 N         145.2555  141.3327  162.1045 N.2     1  UNL1       -0.0400
      3 C         145.6781  142.1807  163.2674 C.2     1  UNL1        0.2366
      4 C         144.8644  142.1848  164.5276 C.2     1  UNL1        0.0661
      5 C         143.6281  141.3409  164.6248 C.2     1  UNL1        0.0782
      6 N         142.6331  141.1418  165.7294 N.2     1  UNL1       -0.2489
      7 C         141.5955  140.1708  165.2492 C.2     1  UNL1        0.0777
      8 C         141.9493  139.7698  163.8478 C.2     1  UNL1        0.0107
      9 C         143.2056  140.4930  163.4619 C.3     1  UNL1        0.1691
     10 C         140.4119  139.6860  166.0329 C.ar    1  UNL1        0.0218
     11 C         139.5677  138.5662  165.5007 C.ar    1  UNL1        0.0313
     12 C         138.3841  138.0814  166.2844 C.ar    1  UNL1        0.1424
     13 F         137.5399  136.9615  165.7522 F       1  UNL1       -0.2041
     14 C         138.0448  138.7165  167.6002 C.ar    1  UNL1        0.0592
     15 C         138.8890  139.8363  168.1324 C.ar    1  UNL1        0.1424
     16 F         138.5497  140.4714  169.4483 F       1  UNL1       -0.2041
     17 C         140.0725  140.3211  167.3488 C.ar    1  UNL1        0.0313
     18 C         142.7513  137.9449  158.7130 C.3     1  UNL1        0.0658
     19 C         142.9966  137.3138  160.0516 C.3     1  UNL1        0.0669
     20 C         143.4193  138.1618  161.2144 C.3     1  UNL1        0.2034
     21 N         143.5966  139.6409  161.0388 N.pl3   1  UNL1       -0.1934
     22 C         143.3513  140.2720  159.7004 C.3     1  UNL1        0.2034
     23 C         142.9286  139.4240  158.5374 C.3     1  UNL1        0.0669
     24 C         141.0608  134.5529  154.0616 C.3     1  UNL1        0.0897
     25 N         141.4834  135.4009  155.2244 N.3     1  UNL1       -0.2691
     26 C         142.7114  135.0418  156.0074 C.3     1  UNL1        0.0897
     27 C         143.1341  135.8899  157.1703 C.3     1  UNL1        0.0896
     28 N         142.3287  137.0969  157.5502 N.3     1  UNL1       -0.2713
     29 C         141.1007  137.4560  156.7672 C.3     1  UNL1        0.0896
     30 C         140.6780  136.6080  155.6044 C.3     1  UNL1        0.0897
@<TRIPOS>BOND
     1    24    25    1
     2    25    26    1
     3    26    27    1
     4    27    28    1
     5    28    18    1
     6    18    19    1
     7    19    20    1
     8    20    21    1
     9    21     1    1
    10     1     2    2
    11     2     3    1
    12     3     4    2
    13     4     5    1
    14     5     6    2
    15     6     7    1
    16     7    10    1
    17    10    11   ar
    18    11    12   ar
    19    12    13    1
    20    12    14   ar
    21    14    15   ar
    22    15    16    1
    23    15    17   ar
    24     7     8    2
    25     8     9    1
    26    21    22    1
    27    22    23    1
    28    28    29    1
    29    29    30    1
    30    30    25    1
    31    23    18    1
    32     9     1    1
    33     9     5    1
    34    17    10   ar
@<TRIPOS>MOLECULE
*****
 30 34 0 0 0
SMALL
GASTEIGER

@<TRIPOS>ATOM
      1 C         140.2613  138.8714  163.6433 C.2     1  UNL1        0.3094
      2 N         139.3036  137.7721  163.2911 N.2     1  UNL1       -0.0400
      3 C         138.3801  137.2187  164.3355 C.2     1  UNL1        0.2366
      4 C         138.4143  137.7647  165.7322 C.2     1  UNL1        0.0661
      5 C         139.3720  138.8641  166.0844 C.2     1  UNL1        0.0782
      6 N         139.6313  139.5966  167.3675 N.2     1  UNL1       -0.2489
      7 C         140.7151  140.6027  167.1160 C.2     1  UNL1        0.0777
      8 C         141.1257  140.4920  165.6775 C.2     1  UNL1        0.0107
      9 C         140.2955  139.4174  165.0400 C.3     1  UNL1        0.1691
     10 C         141.2879  141.5527  168.1258 C.ar    1  UNL1        0.0218
     11 C         140.4325  142.6434  168.6989 C.ar    1  UNL1        0.0313
     12 C         141.0052  143.5934  169.7086 C.ar    1  UNL1        0.1424
     13 F         140.1498  144.6842  170.2817 F       1  UNL1       -0.2041
     14 C         142.4333  143.4525  170.1452 C.ar    1  UNL1        0.0592
     15 C         143.2887  142.3617  169.5721 C.ar    1  UNL1        0.1424
     16 F         144.7168  142.2209  170.0088 F       1  UNL1       -0.2041
     17 C         142.7160  141.4118  168.5624 C.ar    1  UNL1        0.0313
     18 C         143.0320  140.5316  160.5100 C.3     1  UNL1        0.0658
     19 C         141.7299  141.2179  160.7996 C.3     1  UNL1        0.0669
     20 C         140.8064  140.6645  161.8440 C.3     1  UNL1        0.2034
     21 N         141.1849  139.4248  162.5989 N.pl3   1  UNL1       -0.1934
     22 C         142.4868  138.7385  162.3093 C.3     1  UNL1        0.2034
     23 C         143.4104  139.2919  161.2649 C.3     1  UNL1        0.0669
     24 C         146.7260  142.7453  156.3323 C.3     1  UNL1        0.0897
     25 N         145.8025  142.1919  157.3767 N.3     1  UNL1       -0.2691
     26 C         145.6329  142.9085  158.6835 C.3     1  UNL1        0.0897
     27 C         144.7093  142.3550  159.7280 C.3     1  UNL1        0.0896
     28 N         143.9555  141.0850  159.4656 N.3     1  UNL1       -0.2713
     29 C         144.1251  140.3685  158.1588 C.3     1  UNL1        0.0896
     30 C         145.0486  140.9219  157.1144 C.3     1  UNL1        0.0897
@<TRIPOS>BOND
     1    24    25    1
     2    25    26    1
     3    26    27    1
     4    27    28    1
     5    28    18    1
     6    18    19    1
     7    19    20    1
     8    20    21    1
     9    21     1    1
    10     1     2    2
    11     2     3    1
    12     3     4    2
    13     4     5    1
    14     5     6    2
    15     6     7    1
    16     7    10    1
    17    10    11   ar
    18    11    12   ar
    19    12    13    1
    20    12    14   ar
    21    14    15   ar
    22    15    16    1
    23    15    17   ar
    24     7     8    2
    25     8     9    1
    26    21    22    1
    27    22    23    1
    28    28    29    1
    29    29    30    1
    30    30    25    1
    31    23    18    1
    32     9     1    1
    33     9     5    1
    34    17    10   ar
