@<TRIPOS>MOLECULE
*****
 36 39 0 0 0
SMALL
GASTEIGER

@<TRIPOS>ATOM
      1 C         140.5749  142.7048  165.9398 C.ar    1  UNL1        0.0003
      2 C         141.9268  142.4381  165.3472 C.ar    1  UNL1        0.0013
      3 C         142.3897  143.2192  164.1532 C.ar    1  UNL1        0.0147
      4 C         141.5006  144.2671  163.5520 C.ar    1  UNL1        0.0516
      5 C         140.1487  144.5338  164.1447 C.ar    1  UNL1        0.0147
      6 C         139.6858  143.7526  165.3386 C.ar    1  UNL1        0.0013
      7 C         139.1866  140.3612  169.5218 C.ar    1  UNL1        0.1757
      8 C         139.9592  141.6329  169.7111 C.ar    1  UNL1        0.0402
      9 C         140.4220  142.4140  168.5171 C.ar    1  UNL1        0.0034
     10 C         140.1121  141.9235  167.1338 C.ar    1  UNL1        0.0060
     11 C         139.3395  140.6518  166.9446 C.ar    1  UNL1        0.0746
     12 C         138.8881  139.9256  165.7122 C.ar    1  UNL1        0.1675
     13 N         139.1351  140.3542  164.2961 N.pl3   1  UNL1       -0.3400
     14 N         138.1464  138.6956  166.1445 N.ar    1  UNL1       -0.0622
     15 O         138.1393  138.6616  167.6441 O.2     1  UNL1       -0.3490
     16 C         138.8767  139.8707  168.1386 C.ar    1  UNL1        0.2117
     17 H         139.6353  141.1820  164.1124 H       1  UNL1        0.1438
     18 H         138.7970  139.8076  163.5503 H       1  UNL1        0.1438
     19 C         137.2740  139.2249  170.8638 C.3     1  UNL1        0.2526
     20 O         138.7239  139.5800  170.7158 O.3     1  UNL1       -0.4683
     21 N         141.9635  145.0483  162.3581 N.am    1  UNL1       -0.2681
     22 C         141.4707  144.6869  160.9883 C.2     1  UNL1        0.3082
     23 O         140.5149  143.5442  160.8123 O.2     1  UNL1       -0.2522
     24 N         141.9336  145.4681  159.7943 N.am    1  UNL1       -0.2681
     25 H         142.5908  145.7982  162.4735 H       1  UNL1        0.1564
     26 H         142.5608  146.2180  159.9097 H       1  UNL1        0.1564
     27 C         141.4407  145.1066  158.4245 C.ar    1  UNL1        0.0515
     28 C         141.8643  143.8143  157.7918 C.ar    1  UNL1        0.0147
     29 C         141.3715  143.4528  156.4219 C.ar    1  UNL1        0.0012
     30 C         140.4550  144.3837  155.6848 C.ar    1  UNL1        0.0039
     31 C         140.0313  145.6761  156.3175 C.ar    1  UNL1        0.0727
     32 C         140.5242  146.0375  157.6873 C.ar    1  UNL1        0.0186
     33 C         139.1148  146.6070  155.5803 C.3     1  UNL1        0.4186
     34 F         138.1983  147.5379  154.8430 F       1  UNL1       -0.1659
     35 F         139.0144  147.4740  156.8001 F       1  UNL1       -0.1659
     36 F         139.2153  145.7399  154.3604 F       1  UNL1       -0.1659
@<TRIPOS>BOND
     1    19    20    1
     2    20     7    1
     3     7     8   ar
     4     8     9   ar
     5     9    10   ar
     6    10     1    1
     7     1     2   ar
     8     2     3   ar
     9     3     4   ar
    10     4    21    1
    11    21    22   am
    12    22    23    2
    13    22    24   am
    14    24    27    1
    15    27    28   ar
    16    28    29   ar
    17    29    30   ar
    18    30    31   ar
    19    31    33    1
    20    33    34    1
    21    33    35    1
    22    33    36    1
    23    31    32   ar
    24     4     5   ar
    25     5     6   ar
    26    10    11   ar
    27    11    12   ar
    28    12    13    1
    29    12    14   ar
    30    14    15   ar
    31    15    16   ar
    32    16     7   ar
    33     6     1   ar
    34    16    11   ar
    35    32    27   ar
    36    21    25    1
    37    24    26    1
    38    13    17    1
    39    13    18    1
@<TRIPOS>MOLECULE
*****
 36 39 0 0 0
SMALL
GASTEIGER

@<TRIPOS>ATOM
      1 C         142.4659  142.0694  164.6177 C.ar    1  UNL1        0.0003
      2 C         143.6423  142.9528  164.3249 C.ar    1  UNL1        0.0013
      3 C         143.8704  143.4610  162.9322 C.ar    1  UNL1        0.0147
      4 C         142.9220  143.0858  161.8323 C.ar    1  UNL1        0.0516
      5 C         141.7456  142.2024  162.1250 C.ar    1  UNL1        0.0147
      6 C         141.5175  141.6942  163.5178 C.ar    1  UNL1        0.0013
      7 C         141.7818  140.5450  168.7960 C.ar    1  UNL1        0.1757
      8 C         141.1789  141.8492  168.3654 C.ar    1  UNL1        0.0402
      9 C         141.4069  142.3573  166.9727 C.ar    1  UNL1        0.0034
     10 C         142.2379  141.5612  166.0105 C.ar    1  UNL1        0.0060
     11 C         142.8408  140.2570  166.4411 C.ar    1  UNL1        0.0746
     12 C         143.6986  139.2608  165.7189 C.ar    1  UNL1        0.1675
     13 N         144.1713  139.3693  164.2994 N.pl3   1  UNL1       -0.3400
     14 N         144.0007  138.1369  166.6653 N.ar    1  UNL1       -0.0622
     15 O         143.3296  138.4386  167.9724 O.2     1  UNL1       -0.3490
     16 C         142.6127  139.7489  167.8339 C.ar    1  UNL1        0.2117
     17 H         143.9189  140.1497  163.7549 H       1  UNL1        0.1438
     18 H         144.7339  138.6601  163.9124 H       1  UNL1        0.1438
     19 C         140.9481  140.9361  171.2254 C.3     1  UNL1        0.2526
     20 O         141.5537  140.0369  170.1888 O.3     1  UNL1       -0.4683
     21 N         143.1501  143.5940  160.4395 N.am    1  UNL1       -0.2681
     22 C         143.8455  142.7296  159.4302 C.2     1  UNL1        0.3082
     23 O         144.3130  141.3567  159.8134 O.2     1  UNL1       -0.2522
     24 N         144.0736  143.2378  158.0374 N.am    1  UNL1       -0.2681
     25 H         142.8433  144.4950  160.1879 H       1  UNL1        0.1564
     26 H         143.7668  144.1388  157.7858 H       1  UNL1        0.1564
     27 C         144.7691  142.3732  157.0281 C.ar    1  UNL1        0.0515
     28 C         143.9966  141.3332  156.2721 C.ar    1  UNL1        0.0147
     29 C         144.6921  140.4686  155.2627 C.ar    1  UNL1        0.0012
     30 C         146.1601  140.6441  155.0093 C.ar    1  UNL1        0.0039
     31 C         146.9325  141.6842  155.7653 C.ar    1  UNL1        0.0727
     32 C         146.2371  142.5487  156.7746 C.ar    1  UNL1        0.0186
     33 C         148.4005  141.8597  155.5118 C.3     1  UNL1        0.4186
     34 F         149.8685  142.0352  155.2583 F       1  UNL1       -0.1659
     35 F         148.5839  142.3538  156.9161 F       1  UNL1       -0.1659
     36 F         148.2171  141.3656  154.1075 F       1  UNL1       -0.1659
@<TRIPOS>BOND
     1    19    20    1
     2    20     7    1
     3     7     8   ar
     4     8     9   ar
     5     9    10   ar
     6    10     1    1
     7     1     2   ar
     8     2     3   ar
     9     3     4   ar
    10     4    21    1
    11    21    22   am
    12    22    23    2
    13    22    24   am
    14    24    27    1
    15    27    28   ar
    16    28    29   ar
    17    29    30   ar
    18    30    31   ar
    19    31    33    1
    20    33    34    1
    21    33    35    1
    22    33    36    1
    23    31    32   ar
    24     4     5   ar
    25     5     6   ar
    26    10    11   ar
    27    11    12   ar
    28    12    13    1
    29    12    14   ar
    30    14    15   ar
    31    15    16   ar
    32    16     7   ar
    33     6     1   ar
    34    16    11   ar
    35    32    27   ar
    36    21    25    1
    37    24    26    1
    38    13    17    1
    39    13    18    1
@<TRIPOS>MOLECULE
*****
 36 39 0 0 0
SMALL
GASTEIGER

@<TRIPOS>ATOM
      1 C         141.7863  140.1829  164.7414 C.ar    1  UNL1        0.0003
      2 C         141.3669  141.0487  163.5906 C.ar    1  UNL1        0.0013
      3 C         141.9355  140.8067  162.2238 C.ar    1  UNL1        0.0147
      4 C         142.9234  139.6989  162.0079 C.ar    1  UNL1        0.0516
      5 C         143.3429  138.8331  163.1588 C.ar    1  UNL1        0.0147
      6 C         142.7743  139.0751  164.5256 C.ar    1  UNL1        0.0013
      7 C         140.0805  140.9092  168.8419 C.ar    1  UNL1        0.1757
      8 C         141.3400  141.6058  168.4193 C.ar    1  UNL1        0.0402
      9 C         141.9085  141.3637  167.0526 C.ar    1  UNL1        0.0034
     10 C         141.2177  140.4250  166.1083 C.ar    1  UNL1        0.0060
     11 C         139.9583  139.7284  166.5309 C.ar    1  UNL1        0.0746
     12 C         139.0631  138.7556  165.8220 C.ar    1  UNL1        0.1675
     13 N         139.2559  138.2336  164.4291 N.pl3   1  UNL1       -0.3400
     14 N         137.9413  138.3965  166.7508 N.ar    1  UNL1       -0.0622
     15 O         138.1431  139.1473  168.0336 O.2     1  UNL1       -0.3490
     16 C         139.3897  139.9705  167.8977 C.ar    1  UNL1        0.2117
     17 H         140.0277  138.5302  163.8947 H       1  UNL1        0.1438
     18 H         138.6106  137.5944  164.0492 H       1  UNL1        0.1438
     19 C         139.6500  142.5001  170.8502 C.3     1  UNL1        0.2526
     20 O         139.5120  141.1513  170.2087 O.3     1  UNL1       -0.4683
     21 N         143.4920  139.4570  160.6411 N.am    1  UNL1       -0.2681
     22 C         142.7449  138.6055  159.6579 C.2     1  UNL1        0.3082
     23 O         141.4291  137.9959  160.0415 O.2     1  UNL1       -0.2522
     24 N         143.3135  138.3635  158.2911 N.am    1  UNL1       -0.2681
     25 H         144.3556  139.8570  160.3893 H       1  UNL1        0.1564
     26 H         144.1771  138.7636  158.0393 H       1  UNL1        0.1564
     27 C         142.5663  137.5120  157.3080 C.ar    1  UNL1        0.0515
     28 C         141.4587  138.1071  156.4900 C.ar    1  UNL1        0.0147
     29 C         140.7116  137.2555  155.5068 C.ar    1  UNL1        0.0012
     30 C         141.0719  135.8089  155.3416 C.ar    1  UNL1        0.0039
     31 C         142.1795  135.2138  156.1596 C.ar    1  UNL1        0.0727
     32 C         142.9267  136.0653  157.1427 C.ar    1  UNL1        0.0186
     33 C         142.5399  133.7672  155.9943 C.3     1  UNL1        0.4186
     34 F         142.9004  132.3205  155.8291 F       1  UNL1       -0.1659
     35 F         141.1107  133.4481  155.6700 F       1  UNL1       -0.1659
     36 F         143.9693  134.0862  156.3187 F       1  UNL1       -0.1659
@<TRIPOS>BOND
     1    19    20    1
     2    20     7    1
     3     7     8   ar
     4     8     9   ar
     5     9    10   ar
     6    10     1    1
     7     1     2   ar
     8     2     3   ar
     9     3     4   ar
    10     4    21    1
    11    21    22   am
    12    22    23    2
    13    22    24   am
    14    24    27    1
    15    27    28   ar
    16    28    29   ar
    17    29    30   ar
    18    30    31   ar
    19    31    33    1
    20    33    34    1
    21    33    35    1
    22    33    36    1
    23    31    32   ar
    24     4     5   ar
    25     5     6   ar
    26    10    11   ar
    27    11    12   ar
    28    12    13    1
    29    12    14   ar
    30    14    15   ar
    31    15    16   ar
    32    16     7   ar
    33     6     1   ar
    34    16    11   ar
    35    32    27   ar
    36    21    25    1
    37    24    26    1
    38    13    17    1
    39    13    18    1
@<TRIPOS>MOLECULE
*****
 36 39 0 0 0
SMALL
GASTEIGER

@<TRIPOS>ATOM
      1 C         140.9289  139.6462  164.6711 C.ar    1  UNL1        0.0003
      2 C         140.5759  140.7665  163.7382 C.ar    1  UNL1        0.0013
      3 C         140.3069  140.4804  162.2905 C.ar    1  UNL1        0.0147
      4 C         140.3909  139.0740  161.7758 C.ar    1  UNL1        0.0516
      5 C         140.7439  137.9537  162.7087 C.ar    1  UNL1        0.0147
      6 C         141.0129  138.2398  164.1564 C.ar    1  UNL1        0.0013
      7 C         141.7360  140.5047  169.0142 C.ar    1  UNL1        0.1757
      8 C         142.8154  140.7169  167.9945 C.ar    1  UNL1        0.0402
      9 C         142.5464  140.4308  166.5469 C.ar    1  UNL1        0.0034
     10 C         141.1979  139.9323  166.1188 C.ar    1  UNL1        0.0060
     11 C         140.1185  139.7201  167.1385 C.ar    1  UNL1        0.0746
     12 C         138.7022  139.2415  167.0160 C.ar    1  UNL1        0.1675
     13 N         138.0131  138.8425  165.7448 N.pl3   1  UNL1       -0.3400
     14 N         138.0959  139.2318  168.3880 N.ar    1  UNL1       -0.0622
     15 O         139.1375  139.7045  169.3584 O.2     1  UNL1       -0.3490
     16 C         140.3875  140.0063  168.5862 C.ar    1  UNL1        0.2117
     17 H         138.4975  138.8831  164.8887 H       1  UNL1        0.1438
     18 H         137.0765  138.5400  165.7666 H       1  UNL1        0.1438
     19 C         141.2742  141.9022  171.1551 C.3     1  UNL1        0.2526
     20 O         142.0051  140.7909  170.4618 O.3     1  UNL1       -0.4683
     21 N         140.1219  138.7880  160.3281 N.am    1  UNL1       -0.2681
     22 C         141.2465  138.3823  159.4222 C.2     1  UNL1        0.3082
     23 O         142.6402  138.2626  159.9639 O.2     1  UNL1       -0.2522
     24 N         140.9775  138.0962  157.9745 N.am    1  UNL1       -0.2681
     25 H         139.2073  138.8665  159.9725 H       1  UNL1        0.1564
     26 H         140.0628  138.1747  157.6189 H       1  UNL1        0.1564
     27 C         142.1021  137.6905  157.0686 C.ar    1  UNL1        0.0515
     28 C         143.0392  138.7281  156.5253 C.ar    1  UNL1        0.0147
     29 C         144.1638  138.3224  155.6194 C.ar    1  UNL1        0.0012
     30 C         144.3513  136.8790  155.2568 C.ar    1  UNL1        0.0039
     31 C         143.4142  135.8414  155.8000 C.ar    1  UNL1        0.0727
     32 C         142.2896  136.2471  156.7059 C.ar    1  UNL1        0.0186
     33 C         143.6017  134.3981  155.4374 C.3     1  UNL1        0.4186
     34 F         143.7892  132.9547  155.0746 F       1  UNL1       -0.1659
     35 F         144.2649  134.1519  156.7600 F       1  UNL1       -0.1659
     36 F         142.9385  134.6443  154.1146 F       1  UNL1       -0.1659
@<TRIPOS>BOND
     1    19    20    1
     2    20     7    1
     3     7     8   ar
     4     8     9   ar
     5     9    10   ar
     6    10     1    1
     7     1     2   ar
     8     2     3   ar
     9     3     4   ar
    10     4    21    1
    11    21    22   am
    12    22    23    2
    13    22    24   am
    14    24    27    1
    15    27    28   ar
    16    28    29   ar
    17    29    30   ar
    18    30    31   ar
    19    31    33    1
    20    33    34    1
    21    33    35    1
    22    33    36    1
    23    31    32   ar
    24     4     5   ar
    25     5     6   ar
    26    10    11   ar
    27    11    12   ar
    28    12    13    1
    29    12    14   ar
    30    14    15   ar
    31    15    16   ar
    32    16     7   ar
    33     6     1   ar
    34    16    11   ar
    35    32    27   ar
    36    21    25    1
    37    24    26    1
    38    13    17    1
    39    13    18    1
@<TRIPOS>MOLECULE
*****
 36 39 0 0 0
SMALL
GASTEIGER

@<TRIPOS>ATOM
      1 C         141.0231  142.8638  164.6269 C.ar    1  UNL1        0.0003
      2 C         140.3000  144.1526  164.3701 C.ar    1  UNL1        0.0013
      3 C         140.5538  144.9157  163.1039 C.ar    1  UNL1        0.0147
      4 C         141.5308  144.3899  162.0946 C.ar    1  UNL1        0.0516
      5 C         142.2540  143.1011  162.3513 C.ar    1  UNL1        0.0147
      6 C         142.0001  142.3380  163.6175 C.ar    1  UNL1        0.0013
      7 C         140.2615  140.5749  168.4258 C.ar    1  UNL1        0.1757
      8 C         141.2896  141.6669  168.4014 C.ar    1  UNL1        0.0402
      9 C         141.5435  142.4298  167.1352 C.ar    1  UNL1        0.0034
     10 C         140.7692  142.1008  165.8932 C.ar    1  UNL1        0.0060
     11 C         139.7411  141.0088  165.9176 C.ar    1  UNL1        0.0746
     12 C         138.8299  140.4644  164.8578 C.ar    1  UNL1        0.1675
     13 N         138.7498  140.9365  163.4362 N.pl3   1  UNL1       -0.3400
     14 N         138.0130  139.3649  165.4690 N.ar    1  UNL1       -0.0622
     15 O         138.4192  139.2298  166.9067 O.2     1  UNL1       -0.3490
     16 C         139.4873  140.2459  167.1839 C.ar    1  UNL1        0.2117
     17 H         139.3306  141.6689  163.1273 H       1  UNL1        0.1438
     18 H         138.1164  140.5139  162.8122 H       1  UNL1        0.1438
     19 C         140.5060  140.3460  171.0022 C.3     1  UNL1        0.2526
     20 O         140.0077  139.8119  169.6921 O.3     1  UNL1       -0.4683
     21 N         141.7847  145.1530  160.8283 N.am    1  UNL1       -0.2681
     22 C         140.8118  145.0626  159.6903 C.2     1  UNL1        0.3082
     23 O         139.5849  144.2090  159.8184 O.2     1  UNL1       -0.2522
     24 N         141.0656  145.8256  158.4241 N.am    1  UNL1       -0.2681
     25 H         142.5899  145.7132  160.7442 H       1  UNL1        0.1564
     26 H         141.8708  146.3858  158.3400 H       1  UNL1        0.1564
     27 C         140.0927  145.7352  157.2860 C.ar    1  UNL1        0.0515
     28 C         139.5749  146.9863  156.6406 C.ar    1  UNL1        0.0147
     29 C         138.6020  146.8958  155.5026 C.ar    1  UNL1        0.0012
     30 C         138.1467  145.5542  155.0099 C.ar    1  UNL1        0.0039
     31 C         138.6645  144.3031  155.6553 C.ar    1  UNL1        0.0727
     32 C         139.6374  144.3935  156.7933 C.ar    1  UNL1        0.0186
     33 C         138.2092  142.9614  155.1626 C.3     1  UNL1        0.4186
     34 F         137.7539  141.6198  154.6698 F       1  UNL1       -0.1659
     35 F         138.7035  142.3285  156.4294 F       1  UNL1       -0.1659
     36 F         137.7148  143.5944  153.8957 F       1  UNL1       -0.1659
@<TRIPOS>BOND
     1    19    20    1
     2    20     7    1
     3     7     8   ar
     4     8     9   ar
     5     9    10   ar
     6    10     1    1
     7     1     2   ar
     8     2     3   ar
     9     3     4   ar
    10     4    21    1
    11    21    22   am
    12    22    23    2
    13    22    24   am
    14    24    27    1
    15    27    28   ar
    16    28    29   ar
    17    29    30   ar
    18    30    31   ar
    19    31    33    1
    20    33    34    1
    21    33    35    1
    22    33    36    1
    23    31    32   ar
    24     4     5   ar
    25     5     6   ar
    26    10    11   ar
    27    11    12   ar
    28    12    13    1
    29    12    14   ar
    30    14    15   ar
    31    15    16   ar
    32    16     7   ar
    33     6     1   ar
    34    16    11   ar
    35    32    27   ar
    36    21    25    1
    37    24    26    1
    38    13    17    1
    39    13    18    1
@<TRIPOS>MOLECULE
*****
 36 39 0 0 0
SMALL
GASTEIGER

@<TRIPOS>ATOM
      1 C         141.8188  140.0285  164.5756 C.ar    1  UNL1        0.0003
      2 C         142.7575  138.8963  164.2809 C.ar    1  UNL1        0.0013
      3 C         143.2647  138.6865  162.8849 C.ar    1  UNL1        0.0147
      4 C         142.8330  139.6090  161.7837 C.ar    1  UNL1        0.0516
      5 C         141.8943  140.7412  162.0784 C.ar    1  UNL1        0.0147
      6 C         141.3871  140.9509  163.4744 C.ar    1  UNL1        0.0013
      7 C         140.2977  140.6577  168.7638 C.ar    1  UNL1        0.1757
      8 C         141.5912  141.2836  168.3337 C.ar    1  UNL1        0.0402
      9 C         142.0982  141.0739  166.9377 C.ar    1  UNL1        0.0034
     10 C         141.3117  140.2382  165.9717 C.ar    1  UNL1        0.0060
     11 C         140.0182  139.6123  166.4018 C.ar    1  UNL1        0.0746
     12 C         139.0327  138.7450  165.6762 C.ar    1  UNL1        0.1675
     13 N         139.1438  138.2847  164.2528 N.pl3   1  UNL1       -0.3400
     14 N         137.9167  138.4187  166.6237 N.ar    1  UNL1       -0.0622
     15 O         138.2124  139.0844  167.9350 O.2     1  UNL1       -0.3490
     16 C         139.5112  139.8221  167.7979 C.ar    1  UNL1        0.2117
     17 H         139.9186  138.5530  163.7078 H       1  UNL1        0.1438
     18 H         138.4420  137.7144  163.8637 H       1  UNL1        0.1438
     19 C         140.7566  141.1296  171.2771 C.3     1  UNL1        0.2526
     20 O         139.7907  140.8675  170.1599 O.3     1  UNL1       -0.4683
     21 N         143.3401  139.3992  160.3877 N.am    1  UNL1       -0.2681
     22 C         142.7088  138.3609  159.5085 C.2     1  UNL1        0.3082
     23 O         141.5702  137.5322  160.0252 O.2     1  UNL1       -0.2522
     24 N         143.2159  138.1511  158.1125 N.am    1  UNL1       -0.2681
     25 H         144.0874  139.9430  160.0485 H       1  UNL1        0.1564
     26 H         143.9632  138.6949  157.7733 H       1  UNL1        0.1564
     27 C         142.5845  137.1127  157.2332 C.ar    1  UNL1        0.0515
     28 C         143.1535  135.7258  157.1829 C.ar    1  UNL1        0.0147
     29 C         142.5221  134.6874  156.3037 C.ar    1  UNL1        0.0012
     30 C         141.3216  135.0359  155.4747 C.ar    1  UNL1        0.0039
     31 C         140.7525  136.4228  155.5250 C.ar    1  UNL1        0.0727
     32 C         141.3839  137.4612  156.4042 C.ar    1  UNL1        0.0186
     33 C         139.5520  136.7714  154.6960 C.3     1  UNL1        0.4186
     34 F         138.3513  137.1199  153.8671 F       1  UNL1       -0.1659
     35 F         140.3617  136.5893  153.4467 F       1  UNL1       -0.1659
     36 F         138.7421  136.9535  155.9454 F       1  UNL1       -0.1659
@<TRIPOS>BOND
     1    19    20    1
     2    20     7    1
     3     7     8   ar
     4     8     9   ar
     5     9    10   ar
     6    10     1    1
     7     1     2   ar
     8     2     3   ar
     9     3     4   ar
    10     4    21    1
    11    21    22   am
    12    22    23    2
    13    22    24   am
    14    24    27    1
    15    27    28   ar
    16    28    29   ar
    17    29    30   ar
    18    30    31   ar
    19    31    33    1
    20    33    34    1
    21    33    35    1
    22    33    36    1
    23    31    32   ar
    24     4     5   ar
    25     5     6   ar
    26    10    11   ar
    27    11    12   ar
    28    12    13    1
    29    12    14   ar
    30    14    15   ar
    31    15    16   ar
    32    16     7   ar
    33     6     1   ar
    34    16    11   ar
    35    32    27   ar
    36    21    25    1
    37    24    26    1
    38    13    17    1
    39    13    18    1
@<TRIPOS>MOLECULE
*****
 36 39 0 0 0
SMALL
GASTEIGER

@<TRIPOS>ATOM
      1 C         141.0142  139.5349  164.7277 C.ar    1  UNL1        0.0003
      2 C         140.6289  140.6381  163.7872 C.ar    1  UNL1        0.0013
      3 C         140.3669  140.3342  162.3419 C.ar    1  UNL1        0.0147
      4 C         140.4902  138.9271  161.8371 C.ar    1  UNL1        0.0516
      5 C         140.8756  137.8239  162.7776 C.ar    1  UNL1        0.0147
      6 C         141.1376  138.1278  164.2230 C.ar    1  UNL1        0.0013
      7 C         141.8004  140.4471  169.0636 C.ar    1  UNL1        0.1757
      8 C         142.8979  140.6039  168.0532 C.ar    1  UNL1        0.0402
      9 C         142.6359  140.2999  166.6080 C.ar    1  UNL1        0.0034
     10 C         141.2763  139.8390  166.1731 C.ar    1  UNL1        0.0060
     11 C         140.1788  139.6821  167.1835 C.ar    1  UNL1        0.0746
     12 C         138.7487  139.2489  167.0528 C.ar    1  UNL1        0.1675
     13 N         138.0611  138.8496  165.7809 N.pl3   1  UNL1       -0.3400
     14 N         138.1269  139.2853  168.4174 N.ar    1  UNL1       -0.0622
     15 O         139.1727  139.7409  169.3914 O.2     1  UNL1       -0.3490
     16 C         140.4409  139.9862  168.6288 C.ar    1  UNL1        0.2117
     17 H         138.5562  138.8579  164.9300 H       1  UNL1        0.1438
     18 H         137.1146  138.5791  165.7970 H       1  UNL1        0.1438
     19 C         141.2898  141.8357  171.1993 C.3     1  UNL1        0.2526
     20 O         142.0625  140.7511  170.5089 O.3     1  UNL1       -0.4683
     21 N         140.2282  138.6231  160.3918 N.am    1  UNL1       -0.2681
     22 C         141.3699  138.2989  159.4746 C.2     1  UNL1        0.3082
     23 O         142.7738  138.2786  160.0027 O.2     1  UNL1       -0.2522
     24 N         141.1079  137.9950  158.0293 N.am    1  UNL1       -0.2681
     25 H         139.3068  138.6365  160.0452 H       1  UNL1        0.1564
     26 H         140.1865  138.0083  157.6826 H       1  UNL1        0.1564
     27 C         142.2496  137.6708  157.1121 C.ar    1  UNL1        0.0515
     28 C         142.6630  136.2439  156.9044 C.ar    1  UNL1        0.0147
     29 C         143.8048  135.9197  155.9872 C.ar    1  UNL1        0.0012
     30 C         144.5332  137.0224  155.2776 C.ar    1  UNL1        0.0039
     31 C         144.1198  138.4492  155.4853 C.ar    1  UNL1        0.0727
     32 C         142.9781  138.7735  156.4025 C.ar    1  UNL1        0.0186
     33 C         144.8483  139.5519  154.7758 C.3     1  UNL1        0.4186
     34 F         145.5768  140.6546  154.0663 F       1  UNL1       -0.1659
     35 F         144.1223  139.2152  153.5072 F       1  UNL1       -0.1659
     36 F         145.5743  139.8887  156.0444 F       1  UNL1       -0.1659
@<TRIPOS>BOND
     1    19    20    1
     2    20     7    1
     3     7     8   ar
     4     8     9   ar
     5     9    10   ar
     6    10     1    1
     7     1     2   ar
     8     2     3   ar
     9     3     4   ar
    10     4    21    1
    11    21    22   am
    12    22    23    2
    13    22    24   am
    14    24    27    1
    15    27    28   ar
    16    28    29   ar
    17    29    30   ar
    18    30    31   ar
    19    31    33    1
    20    33    34    1
    21    33    35    1
    22    33    36    1
    23    31    32   ar
    24     4     5   ar
    25     5     6   ar
    26    10    11   ar
    27    11    12   ar
    28    12    13    1
    29    12    14   ar
    30    14    15   ar
    31    15    16   ar
    32    16     7   ar
    33     6     1   ar
    34    16    11   ar
    35    32    27   ar
    36    21    25    1
    37    24    26    1
    38    13    17    1
    39    13    18    1
@<TRIPOS>MOLECULE
*****
 36 39 0 0 0
SMALL
GASTEIGER

@<TRIPOS>ATOM
      1 C         139.9120  139.5102  164.1323 C.ar    1  UNL1        0.0003
      2 C         139.2346  138.2558  163.6660 C.ar    1  UNL1        0.0013
      3 C         138.8655  138.0954  162.2210 C.ar    1  UNL1        0.0147
      4 C         139.1739  139.1895  161.2423 C.ar    1  UNL1        0.0516
      5 C         139.8513  140.4440  161.7086 C.ar    1  UNL1        0.0147
      6 C         140.2204  140.6044  163.1537 C.ar    1  UNL1        0.0013
      7 C         141.0188  139.9912  168.4675 C.ar    1  UNL1        0.1757
      8 C         139.6722  140.4402  167.9830 C.ar    1  UNL1        0.0402
      9 C         139.3032  140.2799  166.5380 C.ar    1  UNL1        0.0034
     10 C         140.2810  139.6705  165.5774 C.ar    1  UNL1        0.0060
     11 C         141.6277  139.2215  166.0619 C.ar    1  UNL1        0.0746
     12 C         142.7900  138.5907  165.3539 C.ar    1  UNL1        0.1675
     13 N         142.8538  138.2494  163.8947 N.pl3   1  UNL1       -0.3400
     14 N         143.8772  138.3613  166.3615 N.ar    1  UNL1       -0.0622
     15 O         143.3869  138.8501  167.6921 O.2     1  UNL1       -0.3490
     16 C         141.9966  139.3818  167.5070 C.ar    1  UNL1        0.2117
     17 H         142.0844  138.4396  163.3106 H       1  UNL1        0.1438
     18 H         143.6650  137.8352  163.5210 H       1  UNL1        0.1438
     19 C         140.3257  140.0843  170.9697 C.3     1  UNL1        0.2526
     20 O         141.3878  140.1515  169.9126 O.3     1  UNL1       -0.4683
     21 N         138.8049  139.0292  159.7973 N.am    1  UNL1       -0.2681
     22 C         139.8488  138.6318  158.7962 C.2     1  UNL1        0.3082
     23 O         141.2619  138.3948  159.2401 O.2     1  UNL1       -0.2522
     24 N         139.4797  138.4714  157.3512 N.am    1  UNL1       -0.2681
     25 H         137.8774  139.1847  159.5059 H       1  UNL1        0.1564
     26 H         138.5523  138.6270  157.0598 H       1  UNL1        0.1564
     27 C         140.5237  138.0741  156.3501 C.ar    1  UNL1        0.0515
     28 C         141.0963  139.0990  155.4166 C.ar    1  UNL1        0.0147
     29 C         142.1403  138.7017  154.4155 C.ar    1  UNL1        0.0012
     30 C         142.6118  137.2793  154.3480 C.ar    1  UNL1        0.0039
     31 C         142.0392  136.2544  155.2815 C.ar    1  UNL1        0.0727
     32 C         140.9952  136.6517  156.2826 C.ar    1  UNL1        0.0186
     33 C         142.5107  134.8320  155.2140 C.3     1  UNL1        0.4186
     34 F         142.9821  133.4095  155.1465 F       1  UNL1       -0.1659
     35 F         143.9168  135.3082  155.0004 F       1  UNL1       -0.1659
     36 F         141.1044  134.3557  155.4276 F       1  UNL1       -0.1659
@<TRIPOS>BOND
     1    19    20    1
     2    20     7    1
     3     7     8   ar
     4     8     9   ar
     5     9    10   ar
     6    10     1    1
     7     1     2   ar
     8     2     3   ar
     9     3     4   ar
    10     4    21    1
    11    21    22   am
    12    22    23    2
    13    22    24   am
    14    24    27    1
    15    27    28   ar
    16    28    29   ar
    17    29    30   ar
    18    30    31   ar
    19    31    33    1
    20    33    34    1
    21    33    35    1
    22    33    36    1
    23    31    32   ar
    24     4     5   ar
    25     5     6   ar
    26    10    11   ar
    27    11    12   ar
    28    12    13    1
    29    12    14   ar
    30    14    15   ar
    31    15    16   ar
    32    16     7   ar
    33     6     1   ar
    34    16    11   ar
    35    32    27   ar
    36    21    25    1
    37    24    26    1
    38    13    17    1
    39    13    18    1
@<TRIPOS>MOLECULE
*****
 36 39 0 0 0
SMALL
GASTEIGER

@<TRIPOS>ATOM
      1 C         141.8800  140.1267  164.1509 C.ar    1  UNL1        0.0003
      2 C         141.4698  141.0327  163.0280 C.ar    1  UNL1        0.0013
      3 C         142.0209  140.8158  161.6499 C.ar    1  UNL1        0.0147
      4 C         142.9821  139.6929  161.3947 C.ar    1  UNL1        0.0516
      5 C         143.3923  138.7869  162.5176 C.ar    1  UNL1        0.0147
      6 C         142.8412  139.0038  163.8958 C.ar    1  UNL1        0.0013
      7 C         140.2265  140.7775  168.2853 C.ar    1  UNL1        0.1757
      8 C         139.5100  139.8758  167.3243 C.ar    1  UNL1        0.0402
      9 C         140.0611  139.6588  165.9463 C.ar    1  UNL1        0.0034
     10 C         141.3289  140.3436  165.5291 C.ar    1  UNL1        0.0060
     11 C         142.0454  141.2453  166.4901 C.ar    1  UNL1        0.0746
     12 C         143.3052  142.0494  166.3628 C.ar    1  UNL1        0.1675
     13 N         144.1834  142.1262  165.1492 N.pl3   1  UNL1       -0.3400
     14 N         143.5327  142.7633  167.6623 N.ar    1  UNL1       -0.0622
     15 O         142.4134  142.4004  168.5926 O.2     1  UNL1       -0.3490
     16 C         141.4942  141.4623  167.8682 C.ar    1  UNL1        0.2117
     17 H         143.9491  141.6181  164.3391 H       1  UNL1        0.1438
     18 H         144.9941  142.6846  165.1627 H       1  UNL1        0.1438
     19 C         140.4287  140.4936  170.8599 C.3     1  UNL1        0.2526
     20 O         139.6753  140.9944  169.6634 O.3     1  UNL1       -0.4683
     21 N         143.5332  139.4760  160.0165 N.am    1  UNL1       -0.2681
     22 C         142.8207  138.5685  159.0581 C.2     1  UNL1        0.3082
     23 O         141.5570  137.8777  159.4778 O.2     1  UNL1       -0.2522
     24 N         143.3717  138.3516  157.6800 N.am    1  UNL1       -0.2681
     25 H         144.3625  139.9293  159.7411 H       1  UNL1        0.1564
     26 H         144.2011  138.8049  157.4045 H       1  UNL1        0.1564
     27 C         142.6591  137.4440  156.7216 C.ar    1  UNL1        0.0515
     28 C         141.7614  138.0219  155.6680 C.ar    1  UNL1        0.0147
     29 C         141.0488  137.1143  154.7095 C.ar    1  UNL1        0.0012
     30 C         141.2340  135.6288  154.8047 C.ar    1  UNL1        0.0039
     31 C         142.1317  135.0510  155.8583 C.ar    1  UNL1        0.0727
     32 C         142.8443  135.9585  156.8167 C.ar    1  UNL1        0.0186
     33 C         142.3168  133.5655  155.9535 C.3     1  UNL1        0.4186
     34 F         142.5019  132.0800  156.0486 F       1  UNL1       -0.1659
     35 F         143.7436  133.7699  156.3688 F       1  UNL1       -0.1659
     36 F         140.8900  133.3611  155.5382 F       1  UNL1       -0.1659
@<TRIPOS>BOND
     1    19    20    1
     2    20     7    1
     3     7     8   ar
     4     8     9   ar
     5     9    10   ar
     6    10     1    1
     7     1     2   ar
     8     2     3   ar
     9     3     4   ar
    10     4    21    1
    11    21    22   am
    12    22    23    2
    13    22    24   am
    14    24    27    1
    15    27    28   ar
    16    28    29   ar
    17    29    30   ar
    18    30    31   ar
    19    31    33    1
    20    33    34    1
    21    33    35    1
    22    33    36    1
    23    31    32   ar
    24     4     5   ar
    25     5     6   ar
    26    10    11   ar
    27    11    12   ar
    28    12    13    1
    29    12    14   ar
    30    14    15   ar
    31    15    16   ar
    32    16     7   ar
    33     6     1   ar
    34    16    11   ar
    35    32    27   ar
    36    21    25    1
    37    24    26    1
    38    13    17    1
    39    13    18    1
