@<TRIPOS>MOLECULE
*****
 61 63 0 0 0
SMALL
GASTEIGER

@<TRIPOS>ATOM
      1 O         142.4184  142.2302  158.3757 O.3     1  UNL1       -0.3285
      2 C         141.5632  140.4085  157.2233 C.3     1  UNL1        0.1826
      3 C         141.3688  141.8896  157.3595 C.3     1  UNL1        0.1488
      4 C         140.7650  143.2378  157.0994 C.3     1  UNL1        0.0377
      5 C         139.8435  144.2478  156.4824 C.3     1  UNL1        0.0057
      6 C         138.7448  144.7660  155.6024 C.3     1  UNL1        0.0312
      7 C         138.7705  146.2289  155.9329 C.3     1  UNL1        0.0028
      8 C         137.6360  144.7133  154.5935 C.3     1  UNL1        0.1324
      9 O         137.2291  146.1557  154.5304 O.3     1  UNL1       -0.3801
     10 C         136.6861  144.0979  153.6092 C.2     1  UNL1        0.0025
     11 C         136.0396  143.0134  152.7994 C.2     1  UNL1       -0.0025
     12 C         135.7948  141.6249  152.2873 C.2     1  UNL1       -0.0047
     13 C         135.9892  140.1438  152.1511 C.2     1  UNL1       -0.0224
     14 C         136.5930  138.7956  152.4112 C.3     1  UNL1        0.0696
     15 C         137.5145  137.7856  153.0282 C.3     1  UNL1        0.1733
     16 C         137.0601  136.5248  152.3544 C.3     1  UNL1        0.0477
     17 O         138.6132  137.2674  153.9082 O.3     1  UNL1       -0.4518
     18 C         139.7220  137.3201  154.9171 C.2     1  UNL1        0.3207
     19 O         140.1289  135.8776  154.9802 O.2     1  UNL1       -0.2500
     20 C         140.6719  137.9354  155.9014 C.3     1  UNL1        0.1556
     21 C         141.3185  139.0200  156.7112 C.3     1  UNL1        0.2092
     22 H         137.7813  146.6743  155.1363 H       1  UNL1        0.2108
     23 C         144.1080  140.3737  157.7456 C.3     1  UNL1        0.1743
     24 O         142.6886  140.1712  158.1862 O.3     1  UNL1       -0.3474
     25 C         141.5788  144.1044  158.0140 C.3     1  UNL1        0.0747
     26 C         140.9531  145.3010  158.6671 C.2     1  UNL1        0.2075
     27 O         139.8713  145.4831  159.6902 O.2     1  UNL1       -0.2883
     28 O         142.3484  138.2409  157.4744 O.3     1  UNL1       -0.4490
     29 C         142.9550  137.0085  156.8719 C.2     1  UNL1        0.3175
     30 C         143.9369  137.1301  155.7445 C.3     1  UNL1        0.1212
     31 O         142.8129  135.5394  157.1396 O.2     1  UNL1       -0.2501
     32 C         142.0371  142.4144  159.8147 C.3     1  UNL1        0.2645
     33 O         140.6497  142.0748  160.2724 O.3     1  UNL1       -0.3286
     34 C         140.2685  142.2591  161.7115 C.3     1  UNL1        0.1464
     35 C         138.8810  141.9195  162.1692 C.3     1  UNL1        0.0348
     36 C         141.2748  142.7829  162.6927 C.3     1  UNL1        0.1618
     37 C         142.6624  143.1224  162.2351 C.3     1  UNL1        0.1197
     38 C         143.0436  142.9382  160.7960 C.3     1  UNL1        0.1840
     39 O         144.4310  143.2777  160.3383 O.3     1  UNL1       -0.3783
     40 H         144.9502  143.6002  161.0916 H       1  UNL1        0.2106
     41 N         143.6687  143.6462  163.2163 N.3     1  UNL1       -0.2672
     42 C         143.6239  145.0841  163.6412 C.3     1  UNL1        0.0898
     43 C         144.7199  142.7321  163.7727 C.3     1  UNL1        0.0898
     44 O         140.8937  142.9671  164.1318 O.3     1  UNL1       -0.3290
     45 C         141.4896  142.0807  165.1849 C.3     1  UNL1        0.2377
     46 C         141.5305  140.5954  164.9798 C.3     1  UNL1        0.0918
     47 C         142.1264  139.7089  166.0329 C.3     1  UNL1        0.1322
     48 C         142.5849  138.4644  166.7336 C.3     1  UNL1        0.0333
     49 O         141.7305  138.6777  165.0180 O.3     1  UNL1       -0.3830
     50 C         142.6816  140.3078  167.2911 C.3     1  UNL1        0.2200
     51 C         142.6408  141.7931  167.4962 C.3     1  UNL1        0.1600
     52 C         143.1959  142.3921  168.7544 C.3     1  UNL1        0.0361
     53 O         142.0448  142.6796  166.4431 O.3     1  UNL1       -0.3291
     54 H         141.3188  139.1151  164.2564 H       1  UNL1        0.2104
     55 O         143.2776  139.4214  168.3442 O.3     1  UNL1       -0.4473
     56 C         142.7536  139.4689  169.7489 C.2     1  UNL1        0.3170
     57 O         143.6973  139.6854  170.8945 O.2     1  UNL1       -0.2501
     58 C         141.2858  139.2998  170.0081 C.3     1  UNL1        0.1096
     59 C         140.4102  140.5058  170.1776 C.3     1  UNL1        0.0111
     60 C         140.7345  141.5266  171.2277 C.3     1  UNL1        0.0006
     61 C         139.2102  140.6910  169.2968 C.3     1  UNL1        0.0006
@<TRIPOS>BOND
     1    23    24    1
     2     2    24    1
     3     2     3    1
     4     3     1    1
     5    32     1    1
     6    32    33    1
     7    33    34    1
     8    34    35    1
     9    34    36    1
    10    36    44    1
    11    45    44    1
    12    45    46    1
    13    46    47    1
    14    47    48    1
    15    47    49    1
    16    47    50    1
    17    50    55    1
    18    55    56    1
    19    56    57    2
    20    56    58    1
    21    58    59    1
    22    59    60    1
    23    59    61    1
    24    50    51    1
    25    51    52    1
    26    51    53    1
    27    36    37    1
    28    37    41    1
    29    41    42    1
    30    41    43    1
    31    37    38    1
    32    38    39    1
    33     3     4    1
    34     4    25    1
    35    25    26    1
    36    26    27    2
    37     4     5    1
    38     5     6    1
    39     6     7    1
    40     6     8    1
    41     8     9    1
    42     8    10    1
    43    10    11    2
    44    11    12    1
    45    12    13    2
    46    13    14    1
    47    14    15    1
    48    15    16    1
    49    15    17    1
    50    17    18    1
    51    18    19    2
    52    18    20    1
    53    20    21    1
    54    21    28    1
    55    28    29    1
    56    29    30    1
    57    29    31    2
    58    21     2    1
    59    38    32    1
    60    53    45    1
    61    49    54    1
    62    39    40    1
    63     9    22    1
@<TRIPOS>MOLECULE
*****
 61 63 0 0 0
SMALL
GASTEIGER

@<TRIPOS>ATOM
      1 O         142.3331  142.6129  158.3929 O.3     1  UNL1       -0.3285
      2 C         140.5918  143.3263  157.0376 C.3     1  UNL1        0.1826
      3 C         141.3231  142.0746  157.4232 C.3     1  UNL1        0.1488
      4 C         141.6603  140.6131  157.4304 C.3     1  UNL1        0.0377
      5 C         141.5520  139.1641  157.0582 C.3     1  UNL1        0.0057
      6 C         141.0148  137.9481  156.3632 C.3     1  UNL1        0.0312
      7 C         141.9046  136.8762  156.9193 C.3     1  UNL1        0.0028
      8 C         140.1304  137.1505  155.4512 C.3     1  UNL1        0.1324
      9 O         140.6752  135.7673  155.6515 O.3     1  UNL1       -0.3801
     10 C         139.0335  136.8925  154.4612 C.2     1  UNL1        0.0025
     11 C         137.8911  137.2136  153.5437 C.2     1  UNL1       -0.0025
     12 C         136.8770  138.0647  152.8384 C.2     1  UNL1       -0.0047
     13 C         136.1458  139.3164  152.4529 C.2     1  UNL1       -0.0224
     14 C         135.8086  140.7779  152.4457 C.3     1  UNL1        0.0696
     15 C         135.9168  142.2269  152.8179 C.3     1  UNL1        0.1733
     16 C         134.8174  142.8245  151.9906 C.3     1  UNL1        0.0477
     17 O         136.4540  143.4429  153.5129 O.3     1  UNL1       -0.4518
     18 C         137.3384  144.2405  154.4249 C.2     1  UNL1        0.3207
     19 O         136.7937  145.6237  154.2246 O.2     1  UNL1       -0.2500
     20 C         138.4353  144.4985  155.4149 C.3     1  UNL1        0.1556
     21 C         139.5777  144.1774  156.3324 C.3     1  UNL1        0.2092
     22 H         141.4084  135.7973  156.2859 H       1  UNL1        0.2108
     23 C         142.4164  145.1648  157.2397 C.3     1  UNL1        0.1743
     24 O         141.3165  144.3528  157.8568 O.3     1  UNL1       -0.3474
     25 C         142.8018  140.5809  158.4028 C.3     1  UNL1        0.0747
     26 C         143.0849  139.3334  159.1861 C.2     1  UNL1        0.2075
     27 O         144.1497  138.9370  160.1655 O.2     1  UNL1       -0.2883
     28 O         139.9068  145.5360  156.8765 O.3     1  UNL1       -0.4490
     29 C         139.7225  146.7524  156.0184 C.2     1  UNL1        0.3175
     30 C         138.8726  147.8898  156.5022 C.3     1  UNL1        0.1212
     31 O         140.2239  147.1580  154.6641 O.2     1  UNL1       -0.2501
     32 C         141.9192  142.9574  159.7928 C.3     1  UNL1        0.2645
     33 O         140.4650  142.9857  160.1596 O.3     1  UNL1       -0.3286
     34 C         140.0511  143.3302  161.5596 C.3     1  UNL1        0.1464
     35 C         138.5970  143.3585  161.9263 C.3     1  UNL1        0.0348
     36 C         141.0915  143.6466  162.5928 C.3     1  UNL1        0.1618
     37 C         142.5457  143.6183  162.2261 C.3     1  UNL1        0.1197
     38 C         142.9596  143.2738  160.8261 C.3     1  UNL1        0.1840
     39 O         144.4137  143.2455  160.4594 O.3     1  UNL1       -0.3783
     40 H         144.9477  143.4721  161.2369 H       1  UNL1        0.2106
     41 N         143.5860  143.9347  163.2594 N.3     1  UNL1       -0.2672
     42 C         143.7562  145.3435  163.7456 C.3     1  UNL1        0.0898
     43 C         144.4562  142.8422  163.8064 C.3     1  UNL1        0.0898
     44 O         140.6776  143.9911  163.9928 O.3     1  UNL1       -0.3290
     45 C         140.6872  142.9360  165.0589 C.3     1  UNL1        0.2377
     46 C         139.5680  141.9406  165.1390 C.3     1  UNL1        0.0918
     47 C         139.5776  140.8854  166.2051 C.3     1  UNL1        0.1322
     48 C         139.1428  139.7091  167.0281 C.3     1  UNL1        0.0333
     49 O         138.2977  140.5366  165.5050 O.3     1  UNL1       -0.3830
     50 C         140.7064  140.8257  167.1911 C.3     1  UNL1        0.2200
     51 C         141.8256  141.8211  167.1110 C.3     1  UNL1        0.1600
     52 C         142.9545  141.7614  168.0970 C.3     1  UNL1        0.0361
     53 O         141.8161  142.8763  166.0449 O.3     1  UNL1       -0.3291
     54 H         138.1535  141.1521  164.7693 H       1  UNL1        0.2104
     55 O         140.7160  139.7706  168.2572 O.3     1  UNL1       -0.4473
     56 C         140.2422  140.0992  169.6420 C.2     1  UNL1        0.3170
     57 O         140.3392  139.0725  170.7312 O.2     1  UNL1       -0.2501
     58 C         139.6714  141.4545  169.9375 C.3     1  UNL1        0.1096
     59 C         140.5723  142.5657  170.3885 C.3     1  UNL1        0.0111
     60 C         140.3491  143.9622  169.8883 C.3     1  UNL1        0.0006
     61 C         141.6964  142.2805  171.3399 C.3     1  UNL1        0.0006
@<TRIPOS>BOND
     1    23    24    1
     2     2    24    1
     3     2     3    1
     4     3     1    1
     5    32     1    1
     6    32    33    1
     7    33    34    1
     8    34    35    1
     9    34    36    1
    10    36    44    1
    11    45    44    1
    12    45    46    1
    13    46    47    1
    14    47    48    1
    15    47    49    1
    16    47    50    1
    17    50    55    1
    18    55    56    1
    19    56    57    2
    20    56    58    1
    21    58    59    1
    22    59    60    1
    23    59    61    1
    24    50    51    1
    25    51    52    1
    26    51    53    1
    27    36    37    1
    28    37    41    1
    29    41    42    1
    30    41    43    1
    31    37    38    1
    32    38    39    1
    33     3     4    1
    34     4    25    1
    35    25    26    1
    36    26    27    2
    37     4     5    1
    38     5     6    1
    39     6     7    1
    40     6     8    1
    41     8     9    1
    42     8    10    1
    43    10    11    2
    44    11    12    1
    45    12    13    2
    46    13    14    1
    47    14    15    1
    48    15    16    1
    49    15    17    1
    50    17    18    1
    51    18    19    2
    52    18    20    1
    53    20    21    1
    54    21    28    1
    55    28    29    1
    56    29    30    1
    57    29    31    2
    58    21     2    1
    59    38    32    1
    60    53    45    1
    61    49    54    1
    62    39    40    1
    63     9    22    1
@<TRIPOS>MOLECULE
*****
 61 63 0 0 0
SMALL
GASTEIGER

@<TRIPOS>ATOM
      1 O         142.3797  143.2903  158.5138 O.3     1  UNL1       -0.3285
      2 C         140.5753  143.7795  157.1415 C.3     1  UNL1        0.1826
      3 C         141.3872  142.6112  157.6171 C.3     1  UNL1        0.1488
      4 C         141.8118  141.1781  157.7429 C.3     1  UNL1        0.0377
      5 C         141.7844  139.6983  157.4997 C.3     1  UNL1        0.0057
      6 C         141.3094  138.3968  156.9245 C.3     1  UNL1        0.0312
      7 C         142.2716  137.4315  157.5509 C.3     1  UNL1        0.0028
      8 C         140.4589  137.4722  156.1049 C.3     1  UNL1        0.1324
      9 O         141.0893  136.1460  156.4116 O.3     1  UNL1       -0.3801
     10 C         139.3626  137.0649  155.1658 C.2     1  UNL1        0.0025
     11 C         138.1872  137.2372  154.2500 C.2     1  UNL1       -0.0025
     12 C         137.1116  137.9625  153.4969 C.2     1  UNL1       -0.0047
     13 C         136.2998  139.1308  153.0213 C.2     1  UNL1       -0.0224
     14 C         135.8752  140.5639  152.8955 C.3     1  UNL1        0.0696
     15 C         135.9026  142.0438  153.1387 C.3     1  UNL1        0.1733
     16 C         134.7550  142.5015  152.2879 C.3     1  UNL1        0.0477
     17 O         136.3776  143.3452  153.7139 O.3     1  UNL1       -0.4518
     18 C         137.2281  144.2698  154.5335 C.2     1  UNL1        0.3207
     19 O         136.5977  145.5960  154.2269 O.2     1  UNL1       -0.2500
     20 C         138.3244  144.6771  155.4726 C.3     1  UNL1        0.1556
     21 C         139.4998  144.5049  156.3885 C.3     1  UNL1        0.2092
     22 H         141.8303  136.2742  157.0243 H       1  UNL1        0.2108
     23 C         142.4081  145.6197  157.2094 C.3     1  UNL1        0.1743
     24 O         141.2511  144.9143  157.8526 O.3     1  UNL1       -0.3474
     25 C         142.9699  141.2979  158.6885 C.3     1  UNL1        0.0747
     26 C         143.2266  140.2207  159.7003 C.2     1  UNL1        0.2075
     27 O         144.2825  139.1665  159.8549 O.2     1  UNL1       -0.2883
     28 O         139.7560  145.9228  156.8057 O.3     1  UNL1       -0.4490
     29 C         139.4832  147.0467  155.8505 C.2     1  UNL1        0.3175
     30 C         140.3327  147.2126  154.6254 C.3     1  UNL1        0.1212
     31 O         138.4749  148.1564  155.8077 O.2     1  UNL1       -0.2501
     32 C         142.0948  143.4270  159.9801 C.3     1  UNL1        0.2645
     33 O         143.1757  143.8830  160.9148 O.3     1  UNL1       -0.3286
     34 C         142.8907  144.0196  162.3812 C.3     1  UNL1        0.1464
     35 C         143.9715  144.4756  163.3159 C.3     1  UNL1        0.0348
     36 C         141.5249  143.7002  162.9128 C.3     1  UNL1        0.1618
     37 C         140.4440  143.2442  161.9780 C.3     1  UNL1        0.1197
     38 C         140.7290  143.1075  160.5117 C.3     1  UNL1        0.1840
     39 O         139.6481  142.6515  159.5770 O.3     1  UNL1       -0.3783
     40 H         138.8341  142.4889  160.0787 H       1  UNL1        0.2106
     41 N         139.0782  142.9248  162.5096 N.3     1  UNL1       -0.2672
     42 C         138.1186  144.0333  162.8263 C.3     1  UNL1        0.0898
     43 C         138.6721  141.4968  162.7244 C.3     1  UNL1        0.0898
     44 O         141.2400  143.8368  164.3791 O.3     1  UNL1       -0.3290
     45 C         141.6869  142.7687  165.3327 C.3     1  UNL1        0.2377
     46 C         141.5446  141.3228  164.9595 C.3     1  UNL1        0.0918
     47 C         141.9915  140.2546  165.9131 C.3     1  UNL1        0.1322
     48 C         142.2670  138.8908  166.4735 C.3     1  UNL1        0.0333
     49 O         141.4980  139.4033  164.7810 O.3     1  UNL1       -0.3830
     50 C         142.5806  140.6323  167.2398 C.3     1  UNL1        0.2200
     51 C         142.7229  142.0781  167.6130 C.3     1  UNL1        0.1600
     52 C         143.3121  142.4558  168.9397 C.3     1  UNL1        0.0361
     53 O         142.2760  143.1464  166.6594 O.3     1  UNL1       -0.3291
     54 H         141.1680  139.9726  164.0683 H       1  UNL1        0.2104
     55 O         143.0275  139.5642  168.1934 O.3     1  UNL1       -0.4473
     56 C         142.5652  139.5912  169.6201 C.2     1  UNL1        0.3170
     57 O         143.5494  139.8480  170.7226 O.2     1  UNL1       -0.2501
     58 C         141.1188  139.3616  169.9444 C.3     1  UNL1        0.1096
     59 C         140.0776  140.3209  169.4493 C.3     1  UNL1        0.0111
     60 C         139.8995  141.6487  170.1241 C.3     1  UNL1        0.0006
     61 C         139.2143  139.9525  168.2791 C.3     1  UNL1        0.0006
@<TRIPOS>BOND
     1    23    24    1
     2     2    24    1
     3     2     3    1
     4     3     1    1
     5    32     1    1
     6    32    33    1
     7    33    34    1
     8    34    35    1
     9    34    36    1
    10    36    44    1
    11    45    44    1
    12    45    46    1
    13    46    47    1
    14    47    48    1
    15    47    49    1
    16    47    50    1
    17    50    55    1
    18    55    56    1
    19    56    57    2
    20    56    58    1
    21    58    59    1
    22    59    60    1
    23    59    61    1
    24    50    51    1
    25    51    52    1
    26    51    53    1
    27    36    37    1
    28    37    41    1
    29    41    42    1
    30    41    43    1
    31    37    38    1
    32    38    39    1
    33     3     4    1
    34     4    25    1
    35    25    26    1
    36    26    27    2
    37     4     5    1
    38     5     6    1
    39     6     7    1
    40     6     8    1
    41     8     9    1
    42     8    10    1
    43    10    11    2
    44    11    12    1
    45    12    13    2
    46    13    14    1
    47    14    15    1
    48    15    16    1
    49    15    17    1
    50    17    18    1
    51    18    19    2
    52    18    20    1
    53    20    21    1
    54    21    28    1
    55    28    29    1
    56    29    30    1
    57    29    31    2
    58    21     2    1
    59    38    32    1
    60    53    45    1
    61    49    54    1
    62    39    40    1
    63     9    22    1
@<TRIPOS>MOLECULE
*****
 61 63 0 0 0
SMALL
GASTEIGER

@<TRIPOS>ATOM
      1 O         142.0913  143.9767  158.7823 O.3     1  UNL1       -0.3285
      2 C         142.3085  141.7249  158.2722 C.3     1  UNL1        0.1826
      3 C         141.4930  142.9259  157.8945 C.3     1  UNL1        0.1488
      4 C         140.4443  143.7170  157.1706 C.3     1  UNL1        0.0377
      5 C         139.3217  143.9777  156.2104 C.3     1  UNL1        0.0057
      6 C         138.2963  143.6683  155.1602 C.3     1  UNL1        0.0312
      7 C         137.6472  145.0087  154.9811 C.3     1  UNL1        0.0028
      8 C         137.5242  142.8359  154.1799 C.3     1  UNL1        0.1324
      9 O         136.5738  143.8515  153.6184 O.3     1  UNL1       -0.3801
     10 C         137.1228  141.6073  153.4188 C.2     1  UNL1        0.0025
     11 C         137.1535  140.1694  152.9927 C.2     1  UNL1       -0.0025
     12 C         137.6113  138.7412  152.9664 C.2     1  UNL1       -0.0047
     13 C         138.4267  137.5402  153.3440 C.2     1  UNL1       -0.0224
     14 C         139.4755  136.7490  154.0680 C.3     1  UNL1        0.0696
     15 C         140.5980  136.4884  155.0281 C.3     1  UNL1        0.1733
     16 C         140.8471  135.0272  154.7975 C.3     1  UNL1        0.0477
     17 O         141.6235  136.7978  156.0783 O.3     1  UNL1       -0.4518
     18 C         142.3956  137.6302  157.0586 C.2     1  UNL1        0.3207
     19 O         143.3460  136.6145  157.6202 O.2     1  UNL1       -0.2500
     20 C         142.7969  138.8588  157.8197 C.3     1  UNL1        0.1556
     21 C         142.7663  140.2967  158.2458 C.3     1  UNL1        0.2092
     22 H         136.7337  144.7110  154.0386 H       1  UNL1        0.2108
     23 C         144.6472  142.6273  158.9548 C.3     1  UNL1        0.1743
     24 O         143.2249  142.3070  159.3073 O.3     1  UNL1       -0.3474
     25 C         140.6333  145.0763  157.7758 C.3     1  UNL1        0.0747
     26 C         140.3125  146.3045  156.9765 C.2     1  UNL1        0.2075
     27 O         139.2530  147.3620  157.0710 O.2     1  UNL1       -0.2883
     28 O         143.8614  140.3215  159.2707 O.3     1  UNL1       -0.4490
     29 C         143.8244  139.3717  160.4311 C.2     1  UNL1        0.3175
     30 C         143.4235  139.8634  161.7903 C.3     1  UNL1        0.1212
     31 O         144.1163  137.9090  160.5901 O.2     1  UNL1       -0.2501
     32 C         141.7952  143.9733  160.2528 C.3     1  UNL1        0.2645
     33 O         142.8245  144.4659  161.2263 O.3     1  UNL1       -0.3286
     34 C         142.5283  144.4625  162.6968 C.3     1  UNL1        0.1464
     35 C         143.5577  144.9552  163.6703 C.3     1  UNL1        0.0348
     36 C         141.2028  143.9665  163.1937 C.3     1  UNL1        0.1618
     37 C         140.1734  143.4738  162.2202 C.3     1  UNL1        0.1197
     38 C         140.4696  143.4772  160.7497 C.3     1  UNL1        0.1840
     39 O         139.4403  142.9846  159.7762 O.3     1  UNL1       -0.3783
     40 H         138.6476  142.7026  160.2589 H       1  UNL1        0.2106
     41 N         138.8479  142.9778  162.7171 N.3     1  UNL1       -0.2672
     42 C         137.7732  143.9555  163.0901 C.3     1  UNL1        0.0898
     43 C         138.5972  141.5041  162.8411 C.3     1  UNL1        0.0898
     44 O         140.9066  143.9631  164.6642 O.3     1  UNL1       -0.3290
     45 C         141.4430  142.8657  165.5348 C.3     1  UNL1        0.2377
     46 C         141.2954  141.4338  165.1130 C.3     1  UNL1        0.0918
     47 C         141.8318  140.3363  165.9835 C.3     1  UNL1        0.1322
     48 C         142.1717  138.9564  166.4631 C.3     1  UNL1        0.0333
     49 O         141.2658  139.5226  164.8577 O.3     1  UNL1       -0.3830
     50 C         142.5159  140.6708  167.2759 C.3     1  UNL1        0.2200
     51 C         142.6635  142.1026  167.6977 C.3     1  UNL1        0.1600
     52 C         143.3475  142.4371  168.9901 C.3     1  UNL1        0.0361
     53 O         142.1271  143.2002  166.8272 O.3     1  UNL1       -0.3291
     54 H         140.8726  140.1141  164.1971 H       1  UNL1        0.2104
     55 O         143.0523  139.5734  168.1464 O.3     1  UNL1       -0.4473
     56 C         142.6564  139.5011  169.5915 C.2     1  UNL1        0.3170
     57 O         143.6954  139.6546  170.6623 O.2     1  UNL1       -0.2501
     58 C         141.2214  139.2753  169.9657 C.3     1  UNL1        0.1096
     59 C         140.1841  140.2994  169.6123 C.3     1  UNL1        0.0111
     60 C         140.1185  141.5928  170.3691 C.3     1  UNL1        0.0006
     61 C         139.2121  140.0300  168.5019 C.3     1  UNL1        0.0006
@<TRIPOS>BOND
     1    23    24    1
     2     2    24    1
     3     2     3    1
     4     3     1    1
     5    32     1    1
     6    32    33    1
     7    33    34    1
     8    34    35    1
     9    34    36    1
    10    36    44    1
    11    45    44    1
    12    45    46    1
    13    46    47    1
    14    47    48    1
    15    47    49    1
    16    47    50    1
    17    50    55    1
    18    55    56    1
    19    56    57    2
    20    56    58    1
    21    58    59    1
    22    59    60    1
    23    59    61    1
    24    50    51    1
    25    51    52    1
    26    51    53    1
    27    36    37    1
    28    37    41    1
    29    41    42    1
    30    41    43    1
    31    37    38    1
    32    38    39    1
    33     3     4    1
    34     4    25    1
    35    25    26    1
    36    26    27    2
    37     4     5    1
    38     5     6    1
    39     6     7    1
    40     6     8    1
    41     8     9    1
    42     8    10    1
    43    10    11    2
    44    11    12    1
    45    12    13    2
    46    13    14    1
    47    14    15    1
    48    15    16    1
    49    15    17    1
    50    17    18    1
    51    18    19    2
    52    18    20    1
    53    20    21    1
    54    21    28    1
    55    28    29    1
    56    29    30    1
    57    29    31    2
    58    21     2    1
    59    38    32    1
    60    53    45    1
    61    49    54    1
    62    39    40    1
    63     9    22    1
@<TRIPOS>MOLECULE
*****
 61 63 0 0 0
SMALL
GASTEIGER

@<TRIPOS>ATOM
      1 O         141.3816  142.8218  158.2307 O.3     1  UNL1       -0.3285
      2 C         141.9908  140.6549  157.6728 C.3     1  UNL1        0.1826
      3 C         141.0190  141.7254  157.2733 C.3     1  UNL1        0.1488
      4 C         139.9057  142.3681  156.5003 C.3     1  UNL1        0.0377
      5 C         138.8205  142.4851  155.4715 C.3     1  UNL1        0.0057
      6 C         137.9285  142.0588  154.3434 C.3     1  UNL1        0.0312
      7 C         137.0852  143.2853  154.1575 C.3     1  UNL1        0.0028
      8 C         137.3656  141.1538  153.2878 C.3     1  UNL1        0.1324
      9 O         136.3026  142.0272  152.6901 O.3     1  UNL1       -0.3801
     10 C         137.2173  139.9081  152.4655 C.2     1  UNL1        0.0025
     11 C         137.5064  138.5113  152.0017 C.2     1  UNL1       -0.0025
     12 C         138.1888  137.1759  151.9668 C.2     1  UNL1       -0.0047
     13 C         139.1607  136.1054  152.3663 C.2     1  UNL1       -0.0224
     14 C         140.2739  135.4626  153.1393 C.3     1  UNL1        0.0696
     15 C         141.3591  135.3456  154.1681 C.3     1  UNL1        0.1733
     16 C         141.8544  133.9527  153.9139 C.3     1  UNL1        0.0477
     17 O         142.2512  135.7720  155.2962 O.3     1  UNL1       -0.4518
     18 C         142.8141  136.6770  156.3518 C.2     1  UNL1        0.3207
     19 O         143.8771  135.8035  156.9495 O.2     1  UNL1       -0.2500
     20 C         142.9623  137.9226  157.1741 C.3     1  UNL1        0.1556
     21 C         142.6732  139.3195  157.6379 C.3     1  UNL1        0.2092
     22 H         136.2945  142.8840  153.1450 H       1  UNL1        0.2108
     23 C         144.0159  142.0559  158.5011 C.3     1  UNL1        0.1743
     24 O         142.7325  141.3336  158.7860 O.3     1  UNL1       -0.3474
     25 C         139.8339  143.7152  157.1560 C.3     1  UNL1        0.0747
     26 C         139.8150  144.9580  156.3163 C.2     1  UNL1        0.2075
     27 O         140.6010  146.2355  156.3278 O.2     1  UNL1       -0.2883
     28 O         143.6812  139.4772  158.7376 O.3     1  UNL1       -0.4490
     29 C         143.5420  138.6829  160.0023 C.2     1  UNL1        0.3175
     30 C         144.0783  139.2275  161.2929 C.3     1  UNL1        0.1212
     31 O         142.9419  137.3488  160.3343 O.2     1  UNL1       -0.2501
     32 C         140.6587  142.9441  159.5393 C.3     1  UNL1        0.2645
     33 O         139.5804  141.9640  159.8951 O.3     1  UNL1       -0.3286
     34 C         138.8576  142.0864  161.2037 C.3     1  UNL1        0.1464
     35 C         137.7793  141.1062  161.5595 C.3     1  UNL1        0.0348
     36 C         139.2131  143.1889  162.1566 C.3     1  UNL1        0.1618
     37 C         140.2915  144.1691  161.8009 C.3     1  UNL1        0.1197
     38 C         141.0143  144.0467  160.4923 C.3     1  UNL1        0.1840
     39 O         142.0925  145.0268  160.1365 O.3     1  UNL1       -0.3783
     40 H         142.1957  145.6692  160.8559 H       1  UNL1        0.2106
     41 N         140.6470  145.2716  162.7538 N.3     1  UNL1       -0.2672
     42 C         141.6607  145.0322  163.8332 C.3     1  UNL1        0.0898
     43 C         139.9887  146.6135  162.6273 C.3     1  UNL1        0.0898
     44 O         138.4903  143.3113  163.4653 O.3     1  UNL1       -0.3290
     45 C         138.9264  142.4904  164.6425 C.3     1  UNL1        0.2377
     46 C         138.6795  141.0109  164.6580 C.3     1  UNL1        0.0918
     47 C         139.1155  140.1900  165.8353 C.3     1  UNL1        0.1322
     48 C         139.3417  138.9965  166.7152 C.3     1  UNL1        0.0333
     49 O         138.5111  139.1169  164.9791 O.3     1  UNL1       -0.3830
     50 C         139.7986  140.8486  166.9971 C.3     1  UNL1        0.2200
     51 C         140.0455  142.3280  166.9816 C.3     1  UNL1        0.1600
     52 C         140.7285  142.9866  168.1435 C.3     1  UNL1        0.0361
     53 O         139.6094  143.1490  165.8044 O.3     1  UNL1       -0.3291
     54 H         138.1758  139.5092  164.1577 H       1  UNL1        0.2104
     55 O         140.2346  140.0277  168.1743 O.3     1  UNL1       -0.4473
     56 C         141.6937  139.8923  168.4950 C.2     1  UNL1        0.3170
     57 O         142.1218  139.3103  169.8096 O.2     1  UNL1       -0.2501
     58 C         142.7247  140.3388  167.5012 C.3     1  UNL1        0.1096
     59 C         143.0119  139.5012  166.2906 C.3     1  UNL1        0.0111
     60 C         142.7875  140.0642  164.9185 C.3     1  UNL1        0.0006
     61 C         143.5236  138.1004  166.4521 C.3     1  UNL1        0.0006
@<TRIPOS>BOND
     1    23    24    1
     2     2    24    1
     3     2     3    1
     4     3     1    1
     5    32     1    1
     6    32    33    1
     7    33    34    1
     8    34    35    1
     9    34    36    1
    10    36    44    1
    11    45    44    1
    12    45    46    1
    13    46    47    1
    14    47    48    1
    15    47    49    1
    16    47    50    1
    17    50    55    1
    18    55    56    1
    19    56    57    2
    20    56    58    1
    21    58    59    1
    22    59    60    1
    23    59    61    1
    24    50    51    1
    25    51    52    1
    26    51    53    1
    27    36    37    1
    28    37    41    1
    29    41    42    1
    30    41    43    1
    31    37    38    1
    32    38    39    1
    33     3     4    1
    34     4    25    1
    35    25    26    1
    36    26    27    2
    37     4     5    1
    38     5     6    1
    39     6     7    1
    40     6     8    1
    41     8     9    1
    42     8    10    1
    43    10    11    2
    44    11    12    1
    45    12    13    2
    46    13    14    1
    47    14    15    1
    48    15    16    1
    49    15    17    1
    50    17    18    1
    51    18    19    2
    52    18    20    1
    53    20    21    1
    54    21    28    1
    55    28    29    1
    56    29    30    1
    57    29    31    2
    58    21     2    1
    59    38    32    1
    60    53    45    1
    61    49    54    1
    62    39    40    1
    63     9    22    1
@<TRIPOS>MOLECULE
*****
 61 63 0 0 0
SMALL
GASTEIGER

@<TRIPOS>ATOM
      1 O         143.1879  141.5318  157.8689 O.3     1  UNL1       -0.3285
      2 C         142.2417  139.8120  156.6340 C.3     1  UNL1        0.1826
      3 C         142.0215  141.2581  156.9663 C.3     1  UNL1        0.1488
      4 C         141.3463  142.5973  156.9463 C.3     1  UNL1        0.0377
      5 C         140.3188  143.6259  156.5772 C.3     1  UNL1        0.0057
      6 C         139.0954  144.1872  155.9152 C.3     1  UNL1        0.0312
      7 C         139.1200  145.6038  156.4077 C.3     1  UNL1        0.0028
      8 C         137.8624  144.1957  155.0609 C.3     1  UNL1        0.1324
      9 O         137.4059  145.6157  155.2201 O.3     1  UNL1       -0.3801
     10 C         136.8076  143.6503  154.1445 C.2     1  UNL1        0.0025
     11 C         136.0915  142.6338  153.3056 C.2     1  UNL1       -0.0025
     12 C         135.8230  141.3011  152.6716 C.2     1  UNL1       -0.0047
     13 C         136.0432  139.8549  152.3394 C.2     1  UNL1       -0.0224
     14 C         136.7184  138.5157  152.3593 C.3     1  UNL1        0.0696
     15 C         137.7460  137.4872  152.7284 C.3     1  UNL1        0.1733
     16 C         137.2441  136.2895  151.9776 C.3     1  UNL1        0.0477
     17 O         138.9693  136.9258  153.3905 O.3     1  UNL1       -0.4518
     18 C         140.2023  136.9173  154.2448 C.2     1  UNL1        0.3207
     19 O         140.6588  135.4973  154.0855 O.2     1  UNL1       -0.2500
     20 C         141.2572  137.4628  155.1611 C.3     1  UNL1        0.1556
     21 C         141.9733  138.4793  156.0001 C.3     1  UNL1        0.2092
     22 H         138.0186  146.0887  155.8048 H       1  UNL1        0.2108
     23 C         144.8346  139.8069  156.7979 C.3     1  UNL1        0.1743
     24 O         143.4939  139.5215  157.4070 O.3     1  UNL1       -0.3474
     25 C         142.2491  143.3936  157.8412 C.3     1  UNL1        0.0747
     26 C         141.6637  144.2800  158.9003 C.2     1  UNL1        0.2075
     27 O         142.1634  144.8036  160.2141 O.2     1  UNL1       -0.2883
     28 O         143.1208  137.6688  156.5258 O.3     1  UNL1       -0.4490
     29 C         143.2964  136.2450  156.0878 C.2     1  UNL1        0.3175
     30 C         142.9513  135.1245  157.0233 C.3     1  UNL1        0.1212
     31 O         143.7778  135.5952  154.8244 O.2     1  UNL1       -0.2501
     32 C         143.1368  141.1123  159.3082 C.3     1  UNL1        0.2645
     33 O         142.2585  139.9704  159.7260 O.3     1  UNL1       -0.3286
     34 C         142.2075  139.5510  161.1652 C.3     1  UNL1        0.1464
     35 C         141.3291  138.4091  161.5830 C.3     1  UNL1        0.0348
     36 C         143.0349  140.2734  162.1867 C.3     1  UNL1        0.1618
     37 C         143.9133  141.4154  161.7690 C.3     1  UNL1        0.1197
     38 C         143.9643  141.8348  160.3297 C.3     1  UNL1        0.1840
     39 O         144.8427  142.9766  159.9120 O.3     1  UNL1       -0.3783
     40 H         145.3053  143.3294  160.6881 H       1  UNL1        0.2106
     41 N         144.7408  142.1378  162.7905 N.3     1  UNL1       -0.2672
     42 C         145.9394  141.4681  163.3945 C.3     1  UNL1        0.0898
     43 C         144.3695  143.5299  163.2079 C.3     1  UNL1        0.0898
     44 O         142.9840  139.8540  163.6260 O.3     1  UNL1       -0.3290
     45 C         142.3484  140.7510  164.6465 C.3     1  UNL1        0.2377
     46 C         140.9435  141.2369  164.4468 C.3     1  UNL1        0.0918
     47 C         140.3079  142.1340  165.4673 C.3     1  UNL1        0.1322
     48 C         139.2814  142.9917  166.1459 C.3     1  UNL1        0.0333
     49 O         139.1819  142.0208  164.4827 O.3     1  UNL1       -0.3830
     50 C         141.0774  142.5450  166.6876 C.3     1  UNL1        0.2200
     51 C         142.4823  142.0590  166.8873 C.3     1  UNL1        0.1600
     52 C         143.2518  142.4700  168.1076 C.3     1  UNL1        0.0361
     53 O         143.1179  141.1620  165.8668 O.3     1  UNL1       -0.3291
     54 H         139.4537  141.4533  163.7446 H       1  UNL1        0.2104
     55 O         140.4418  143.4420  167.7081 O.3     1  UNL1       -0.4473
     56 C         140.1985  142.9397  169.1004 C.2     1  UNL1        0.3170
     57 O         140.1949  143.8986  170.2538 O.2     1  UNL1       -0.2501
     58 C         139.9586  141.4783  169.3394 C.3     1  UNL1        0.1096
     59 C         140.9708  140.6650  170.0901 C.3     1  UNL1        0.0111
     60 C         141.3208  141.0225  171.5042 C.3     1  UNL1        0.0006
     61 C         141.6332  139.4940  169.4266 C.3     1  UNL1        0.0006
@<TRIPOS>BOND
     1    23    24    1
     2     2    24    1
     3     2     3    1
     4     3     1    1
     5    32     1    1
     6    32    33    1
     7    33    34    1
     8    34    35    1
     9    34    36    1
    10    36    44    1
    11    45    44    1
    12    45    46    1
    13    46    47    1
    14    47    48    1
    15    47    49    1
    16    47    50    1
    17    50    55    1
    18    55    56    1
    19    56    57    2
    20    56    58    1
    21    58    59    1
    22    59    60    1
    23    59    61    1
    24    50    51    1
    25    51    52    1
    26    51    53    1
    27    36    37    1
    28    37    41    1
    29    41    42    1
    30    41    43    1
    31    37    38    1
    32    38    39    1
    33     3     4    1
    34     4    25    1
    35    25    26    1
    36    26    27    2
    37     4     5    1
    38     5     6    1
    39     6     7    1
    40     6     8    1
    41     8     9    1
    42     8    10    1
    43    10    11    2
    44    11    12    1
    45    12    13    2
    46    13    14    1
    47    14    15    1
    48    15    16    1
    49    15    17    1
    50    17    18    1
    51    18    19    2
    52    18    20    1
    53    20    21    1
    54    21    28    1
    55    28    29    1
    56    29    30    1
    57    29    31    2
    58    21     2    1
    59    38    32    1
    60    53    45    1
    61    49    54    1
    62    39    40    1
    63     9    22    1
@<TRIPOS>MOLECULE
*****
 61 63 0 0 0
SMALL
GASTEIGER

@<TRIPOS>ATOM
      1 O         142.3571  141.1531  159.1633 O.3     1  UNL1       -0.3285
      2 C         140.7472  142.1786  157.8464 C.3     1  UNL1        0.1826
      3 C         141.4497  140.8628  158.0046 C.3     1  UNL1        0.1488
      4 C         141.7982  139.4338  157.7108 C.3     1  UNL1        0.0377
      5 C         141.7396  138.1091  157.0096 C.3     1  UNL1        0.0057
      6 C         141.2829  137.0903  156.0078 C.3     1  UNL1        0.0312
      7 C         142.1252  135.9085  156.3874 C.3     1  UNL1        0.0028
      8 C         140.4975  136.5327  154.8579 C.3     1  UNL1        0.1324
      9 O         141.0334  135.1333  154.7888 O.3     1  UNL1       -0.3801
     10 C         139.5031  136.5210  153.7350 C.2     1  UNL1        0.0025
     11 C         138.4510  137.0571  152.8100 C.2     1  UNL1       -0.0025
     12 C         137.5013  138.0594  152.2237 C.2     1  UNL1       -0.0047
     13 C         136.7988  139.3753  152.0655 C.2     1  UNL1       -0.0224
     14 C         136.4503  140.8043  152.3593 C.3     1  UNL1        0.0696
     15 C         136.5089  142.1290  153.0605 C.3     1  UNL1        0.1733
     16 C         135.4883  142.9133  152.2901 C.3     1  UNL1        0.0477
     17 O         136.9656  143.1478  154.0623 O.3     1  UNL1       -0.4518
     18 C         137.7510  143.7053  155.2122 C.2     1  UNL1        0.3207
     19 O         137.2151  145.1047  155.2813 O.2     1  UNL1       -0.2500
     20 C         138.7454  143.7170  156.3351 C.3     1  UNL1        0.1556
     21 C         139.7975  143.1809  157.2600 C.3     1  UNL1        0.2092
     22 H         141.7021  135.0087  155.4803 H       1  UNL1        0.2108
     23 C         140.5737  143.3788  160.1441 C.3     1  UNL1        0.1743
     24 O         141.3804  142.9823  158.9433 O.3     1  UNL1       -0.3474
     25 C         142.8415  139.1664  158.7547 C.3     1  UNL1        0.0747
     26 C         142.9617  137.8003  159.3624 C.2     1  UNL1        0.2075
     27 O         142.4563  137.1748  160.6287 O.2     1  UNL1       -0.2883
     28 O         140.0603  144.3756  158.1283 O.3     1  UNL1       -0.4490
     29 C         140.4033  145.6956  157.5040 C.2     1  UNL1        0.3175
     30 C         141.7977  145.9544  157.0154 C.3     1  UNL1        0.1212
     31 O         139.6259  146.9459  157.2167 O.2     1  UNL1       -0.2501
     32 C         142.0205  140.6306  160.5285 C.3     1  UNL1        0.2645
     33 O         140.6574  140.0670  160.8009 O.3     1  UNL1       -0.3286
     34 C         140.3210  139.5446  162.1662 C.3     1  UNL1        0.1464
     35 C         138.9579  138.9810  162.4386 C.3     1  UNL1        0.0348
     36 C         141.3476  139.5858  163.2590 C.3     1  UNL1        0.1618
     37 C         142.7108  140.1493  162.9866 C.3     1  UNL1        0.1197
     38 C         143.0473  140.6718  161.6213 C.3     1  UNL1        0.1840
     39 O         144.4104  141.2354  161.3489 O.3     1  UNL1       -0.3783
     40 H         144.9472  141.1874  162.1554 H       1  UNL1        0.2106
     41 N         143.7375  140.1905  164.0794 N.3     1  UNL1       -0.2672
     42 C         144.0654  141.4907  164.7518 C.3     1  UNL1        0.0898
     43 C         144.4363  138.9315  164.4997 C.3     1  UNL1        0.0898
     44 O         141.0112  139.0633  164.6242 O.3     1  UNL1       -0.3290
     45 C         140.6912  140.0191  165.7351 C.3     1  UNL1        0.2377
     46 C         140.5885  141.4888  165.4537 C.3     1  UNL1        0.0918
     47 C         140.2685  142.4447  166.5646 C.3     1  UNL1        0.1322
     48 C         139.9905  143.7344  167.2780 C.3     1  UNL1        0.0333
     49 O         140.3892  143.4066  165.4200 O.3     1  UNL1       -0.3830
     50 C         140.0512  141.9306  167.9569 C.3     1  UNL1        0.2200
     51 C         140.1539  140.4609  168.2383 C.3     1  UNL1        0.1600
     52 C         139.9367  139.9468  169.6307 C.3     1  UNL1        0.0361
     53 O         140.4739  139.5050  167.1274 O.3     1  UNL1       -0.3291
     54 H         140.6004  142.9188  164.6086 H       1  UNL1        0.2104
     55 O         139.7313  142.8864  169.0678 O.3     1  UNL1       -0.4473
     56 C         140.5947  142.9275  170.2938 C.2     1  UNL1        0.3170
     57 O         139.9943  142.6648  171.6430 O.2     1  UNL1       -0.2501
     58 C         142.0584  143.2314  170.1705 C.3     1  UNL1        0.1096
     59 C         142.9894  142.2117  169.5845 C.3     1  UNL1        0.0111
     60 C         143.2927  140.9514  170.3392 C.3     1  UNL1        0.0006
     61 C         143.6171  142.4524  168.2435 C.3     1  UNL1        0.0006
@<TRIPOS>BOND
     1    23    24    1
     2     2    24    1
     3     2     3    1
     4     3     1    1
     5    32     1    1
     6    32    33    1
     7    33    34    1
     8    34    35    1
     9    34    36    1
    10    36    44    1
    11    45    44    1
    12    45    46    1
    13    46    47    1
    14    47    48    1
    15    47    49    1
    16    47    50    1
    17    50    55    1
    18    55    56    1
    19    56    57    2
    20    56    58    1
    21    58    59    1
    22    59    60    1
    23    59    61    1
    24    50    51    1
    25    51    52    1
    26    51    53    1
    27    36    37    1
    28    37    41    1
    29    41    42    1
    30    41    43    1
    31    37    38    1
    32    38    39    1
    33     3     4    1
    34     4    25    1
    35    25    26    1
    36    26    27    2
    37     4     5    1
    38     5     6    1
    39     6     7    1
    40     6     8    1
    41     8     9    1
    42     8    10    1
    43    10    11    2
    44    11    12    1
    45    12    13    2
    46    13    14    1
    47    14    15    1
    48    15    16    1
    49    15    17    1
    50    17    18    1
    51    18    19    2
    52    18    20    1
    53    20    21    1
    54    21    28    1
    55    28    29    1
    56    29    30    1
    57    29    31    2
    58    21     2    1
    59    38    32    1
    60    53    45    1
    61    49    54    1
    62    39    40    1
    63     9    22    1
@<TRIPOS>MOLECULE
*****
 61 63 0 0 0
SMALL
GASTEIGER

@<TRIPOS>ATOM
      1 O         139.1958  141.5167  157.9367 O.3     1  UNL1       -0.3285
      2 C         141.2696  140.8827  157.1149 C.3     1  UNL1        0.1826
      3 C         140.2568  141.9814  156.9836 C.3     1  UNL1        0.1488
      4 C         139.6580  143.2613  156.4805 C.3     1  UNL1        0.0377
      5 C         139.5643  144.5277  155.6821 C.3     1  UNL1        0.0057
      6 C         139.9900  145.5878  154.7100 C.3     1  UNL1        0.0312
      7 C         138.8250  146.5303  154.7759 C.3     1  UNL1        0.0028
      8 C         140.8704  146.2802  153.7121 C.3     1  UNL1        0.1324
      9 O         140.0488  147.4928  153.3888 O.3     1  UNL1       -0.3801
     10 C         142.0713  146.4994  152.8405 C.2     1  UNL1        0.0025
     11 C         143.4099  146.2120  152.2278 C.2     1  UNL1       -0.0025
     12 C         144.6825  145.4620  151.9671 C.2     1  UNL1       -0.0047
     13 C         145.6953  144.3633  152.0984 C.2     1  UNL1       -0.0224
     14 C         146.2942  143.0834  152.6015 C.3     1  UNL1        0.0696
     15 C         146.3878  141.8170  153.3999 C.3     1  UNL1        0.1733
     16 C         147.7190  141.2881  152.9547 C.3     1  UNL1        0.0477
     17 O         145.9621  140.7569  154.3720 O.3     1  UNL1       -0.4518
     18 C         145.0817  140.0646  155.3699 C.2     1  UNL1        0.3207
     19 O         145.9033  138.8519  155.6932 O.2     1  UNL1       -0.2500
     20 C         143.8808  139.8453  156.2415 C.3     1  UNL1        0.1556
     21 C         142.5422  140.1327  156.8542 C.3     1  UNL1        0.2092
     22 H         139.2248  147.4708  153.9001 H       1  UNL1        0.2108
     23 C         139.8253  138.7927  157.6588 C.3     1  UNL1        0.1743
     24 O         140.6037  139.9894  158.1192 O.3     1  UNL1       -0.3474
     25 C         138.3634  143.2961  157.2372 C.3     1  UNL1        0.0747
     26 C         137.0648  143.1058  156.5110 C.2     1  UNL1        0.2075
     27 O         136.2283  141.9089  156.1680 O.2     1  UNL1       -0.2883
     28 O         142.3729  138.9466  157.7569 O.3     1  UNL1       -0.4490
     29 C         143.2000  138.8279  159.0025 C.2     1  UNL1        0.3175
     30 C         142.8904  137.7601  160.0094 C.3     1  UNL1        0.1212
     31 O         144.3753  139.5830  159.5489 O.2     1  UNL1       -0.2501
     32 C         139.1983  142.0016  159.3562 C.3     1  UNL1        0.2645
     33 O         139.8283  143.3194  159.6975 O.3     1  UNL1       -0.3286
     34 C         139.8307  143.8043  161.1170 C.3     1  UNL1        0.1464
     35 C         140.4607  145.1220  161.4582 C.3     1  UNL1        0.0348
     36 C         139.2031  142.9713  162.1951 C.3     1  UNL1        0.1618
     37 C         138.5731  141.6535  161.8538 C.3     1  UNL1        0.1197
     38 C         138.5706  141.1686  160.4343 C.3     1  UNL1        0.1840
     39 O         137.9407  139.8509  160.0930 O.3     1  UNL1       -0.3783
     40 H         137.5848  139.4443  160.8986 H       1  UNL1        0.2106
     41 N         137.9455  140.8206  162.9319 N.3     1  UNL1       -0.2672
     42 C         138.4326  139.4236  163.1797 C.3     1  UNL1        0.0898
     43 C         136.8309  141.3846  163.7623 C.3     1  UNL1        0.0898
     44 O         139.2056  143.4562  163.6146 O.3     1  UNL1       -0.3290
     45 C         140.1966  142.9021  164.5947 C.3     1  UNL1        0.2377
     46 C         141.6263  143.3540  164.5524 C.3     1  UNL1        0.0918
     47 C         142.6174  142.7999  165.5325 C.3     1  UNL1        0.1322
     48 C         143.9176  142.5671  166.2433 C.3     1  UNL1        0.0333
     49 O         143.5076  143.7252  164.7569 O.3     1  UNL1       -0.3830
     50 C         142.1789  141.7938  166.5549 C.3     1  UNL1        0.2200
     51 C         140.7492  141.3418  166.5972 C.3     1  UNL1        0.1600
     52 C         140.3106  140.3357  167.6197 C.3     1  UNL1        0.0361
     53 O         139.7581  141.8959  165.6171 O.3     1  UNL1       -0.3291
     54 H         142.9902  144.1682  164.0663 H       1  UNL1        0.2104
     55 O         143.1699  141.2396  167.5350 O.3     1  UNL1       -0.4473
     56 C         142.9531  141.4261  169.0075 C.2     1  UNL1        0.3170
     57 O         143.1748  140.2800  169.9494 O.2     1  UNL1       -0.2501
     58 C         142.5146  142.7589  169.5382 C.3     1  UNL1        0.1096
     59 C         141.1615  142.9070  170.1682 C.3     1  UNL1        0.0111
     60 C         140.3316  144.1241  169.8854 C.3     1  UNL1        0.0006
     61 C         140.6382  141.8380  171.0811 C.3     1  UNL1        0.0006
@<TRIPOS>BOND
     1    23    24    1
     2     2    24    1
     3     2     3    1
     4     3     1    1
     5    32     1    1
     6    32    33    1
     7    33    34    1
     8    34    35    1
     9    34    36    1
    10    36    44    1
    11    45    44    1
    12    45    46    1
    13    46    47    1
    14    47    48    1
    15    47    49    1
    16    47    50    1
    17    50    55    1
    18    55    56    1
    19    56    57    2
    20    56    58    1
    21    58    59    1
    22    59    60    1
    23    59    61    1
    24    50    51    1
    25    51    52    1
    26    51    53    1
    27    36    37    1
    28    37    41    1
    29    41    42    1
    30    41    43    1
    31    37    38    1
    32    38    39    1
    33     3     4    1
    34     4    25    1
    35    25    26    1
    36    26    27    2
    37     4     5    1
    38     5     6    1
    39     6     7    1
    40     6     8    1
    41     8     9    1
    42     8    10    1
    43    10    11    2
    44    11    12    1
    45    12    13    2
    46    13    14    1
    47    14    15    1
    48    15    16    1
    49    15    17    1
    50    17    18    1
    51    18    19    2
    52    18    20    1
    53    20    21    1
    54    21    28    1
    55    28    29    1
    56    29    30    1
    57    29    31    2
    58    21     2    1
    59    38    32    1
    60    53    45    1
    61    49    54    1
    62    39    40    1
    63     9    22    1
@<TRIPOS>MOLECULE
*****
 61 63 0 0 0
SMALL
GASTEIGER

@<TRIPOS>ATOM
      1 O         142.7613  139.2500  159.6142 O.3     1  UNL1       -0.3285
      2 C         141.8262  141.2603  158.9342 C.3     1  UNL1        0.1826
      3 C         141.8937  139.8174  158.5299 C.3     1  UNL1        0.1488
      4 C         141.6228  138.5958  157.7026 C.3     1  UNL1        0.0377
      5 C         141.0546  137.7816  156.5783 C.3     1  UNL1        0.0057
      6 C         140.2757  137.4986  155.3280 C.3     1  UNL1        0.0312
      7 C         140.5119  136.0266  155.1628 C.3     1  UNL1        0.0028
      8 C         139.4046  137.7901  154.1421 C.3     1  UNL1        0.1324
      9 O         139.3009  136.4317  153.5143 O.3     1  UNL1       -0.3801
     10 C         138.5740  138.6115  153.2012 C.2     1  UNL1        0.0025
     11 C         137.9103  139.8379  152.6485 C.2     1  UNL1       -0.0025
     12 C         137.5145  141.2826  152.5681 C.2     1  UNL1       -0.0047
     13 C         137.4470  142.7255  152.9724 C.2     1  UNL1       -0.0224
     14 C         137.7179  143.9470  153.7997 C.3     1  UNL1        0.0696
     15 C         138.2861  144.7612  154.9240 C.3     1  UNL1        0.1733
     16 C         137.7460  146.1230  154.6013 C.3     1  UNL1        0.0477
     17 O         139.0650  145.0442  156.1743 O.3     1  UNL1       -0.4518
     18 C         139.9361  144.7527  157.3602 C.2     1  UNL1        0.3207
     19 O         140.0398  146.1111  157.9880 O.2     1  UNL1       -0.2500
     20 C         140.7667  143.9313  158.3011 C.3     1  UNL1        0.1556
     21 C         141.4304  142.7049  158.8538 C.3     1  UNL1        0.2092
     22 H         139.8075  135.7931  154.0400 H       1  UNL1        0.2108
     23 C         144.0556  141.8231  160.1437 C.3     1  UNL1        0.1743
     24 O         142.6674  141.2560  160.1761 O.3     1  UNL1       -0.3474
     25 C         142.3846  137.5519  158.4640 C.3     1  UNL1        0.0747
     26 C         143.0756  136.4421  157.7286 C.2     1  UNL1        0.2075
     27 O         143.9118  136.3785  156.4848 O.2     1  UNL1       -0.2883
     28 O         142.1172  143.2642  160.0644 O.3     1  UNL1       -0.4490
     29 C         141.3102  143.8950  161.1602 C.2     1  UNL1        0.3175
     30 C         140.1429  143.1605  161.7500 C.3     1  UNL1        0.1212
     31 O         141.3839  145.2054  161.8866 O.2     1  UNL1       -0.2501
     32 C         142.1961  139.0226  160.9849 C.3     1  UNL1        0.2645
     33 O         140.7485  138.6657  161.1495 O.3     1  UNL1       -0.3286
     34 C         140.1833  138.4383  162.5203 C.3     1  UNL1        0.1464
     35 C         138.7358  138.0815  162.6849 C.3     1  UNL1        0.0348
     36 C         141.0658  138.5678  163.7263 C.3     1  UNL1        0.1618
     37 C         142.5134  138.9247  163.5617 C.3     1  UNL1        0.1197
     38 C         143.0786  139.1521  162.1909 C.3     1  UNL1        0.1840
     39 O         144.5261  139.5090  162.0263 O.3     1  UNL1       -0.3783
     40 H         144.9498  139.5515  162.8978 H       1  UNL1        0.2106
     41 N         143.3958  139.0542  164.7677 N.3     1  UNL1       -0.2672
     42 C         144.1145  140.3432  165.0363 C.3     1  UNL1        0.0898
     43 C         143.5596  137.8947  165.7051 C.3     1  UNL1        0.0898
     44 O         140.5006  138.3404  165.0971 O.3     1  UNL1       -0.3290
     45 C         140.3127  139.4980  166.0323 C.3     1  UNL1        0.2377
     46 C         140.4103  140.9029  165.5160 C.3     1  UNL1        0.0918
     47 C         140.2224  142.0605  166.4512 C.3     1  UNL1        0.1322
     48 C         140.1215  143.4744  166.9415 C.3     1  UNL1        0.0333
     49 O         140.4729  142.7989  165.1698 O.3     1  UNL1       -0.3830
     50 C         139.9369  141.8131  167.9029 C.3     1  UNL1        0.2200
     51 C         139.8392  140.4082  168.4192 C.3     1  UNL1        0.1600
     52 C         139.5537  140.1608  169.8709 C.3     1  UNL1        0.0361
     53 O         140.0272  139.2506  167.4840 O.3     1  UNL1       -0.3291
     54 H         140.6163  142.1621  164.4524 H       1  UNL1        0.2104
     55 O         139.7489  142.9706  168.8381 O.3     1  UNL1       -0.4473
     56 C         140.5203  143.0293  170.1233 C.2     1  UNL1        0.3170
     57 O         139.8046  142.8928  171.4344 O.2     1  UNL1       -0.2501
     58 C         142.0073  143.2245  170.0973 C.3     1  UNL1        0.1096
     59 C         142.8904  142.1795  169.4826 C.3     1  UNL1        0.0111
     60 C         143.1749  140.9071  170.2242 C.3     1  UNL1        0.0006
     61 C         143.4890  142.4070  168.1261 C.3     1  UNL1        0.0006
@<TRIPOS>BOND
     1    23    24    1
     2     2    24    1
     3     2     3    1
     4     3     1    1
     5    32     1    1
     6    32    33    1
     7    33    34    1
     8    34    35    1
     9    34    36    1
    10    36    44    1
    11    45    44    1
    12    45    46    1
    13    46    47    1
    14    47    48    1
    15    47    49    1
    16    47    50    1
    17    50    55    1
    18    55    56    1
    19    56    57    2
    20    56    58    1
    21    58    59    1
    22    59    60    1
    23    59    61    1
    24    50    51    1
    25    51    52    1
    26    51    53    1
    27    36    37    1
    28    37    41    1
    29    41    42    1
    30    41    43    1
    31    37    38    1
    32    38    39    1
    33     3     4    1
    34     4    25    1
    35    25    26    1
    36    26    27    2
    37     4     5    1
    38     5     6    1
    39     6     7    1
    40     6     8    1
    41     8     9    1
    42     8    10    1
    43    10    11    2
    44    11    12    1
    45    12    13    2
    46    13    14    1
    47    14    15    1
    48    15    16    1
    49    15    17    1
    50    17    18    1
    51    18    19    2
    52    18    20    1
    53    20    21    1
    54    21    28    1
    55    28    29    1
    56    29    30    1
    57    29    31    2
    58    21     2    1
    59    38    32    1
    60    53    45    1
    61    49    54    1
    62    39    40    1
    63     9    22    1
