@<TRIPOS>MOLECULE
*****
 40 46 0 0 0
SMALL
GASTEIGER

@<TRIPOS>ATOM
      1 C         140.0180  141.7943  161.1546 C.3     1  UNL1        0.1706
      2 N         140.7487  141.1793  159.9980 N.3     1  UNL1       -0.2797
      3 C         141.0526  139.7104  159.9985 C.3     1  UNL1        0.1167
      4 C         140.6257  138.8566  161.1556 C.3     1  UNL1        0.0511
      5 C         139.8950  139.4716  162.3121 C.2     1  UNL1       -0.0037
      6 C         139.5911  140.9405  162.3116 C.2     1  UNL1        0.0800
      7 N         138.8615  141.2633  163.5819 N.2     1  UNL1       -0.2519
      8 C         138.7145  139.9939  164.3674 C.2     1  UNL1        0.0627
      9 C         138.0816  139.7033  165.6959 C.3     1  UNL1        0.0717
     10 C         138.0873  138.3054  166.2396 C.2     1  UNL1       -0.0198
     11 C         138.7261  137.1980  165.4549 C.2     1  UNL1       -0.0042
     12 C         139.3590  137.4886  164.1264 C.2     1  UNL1        0.0006
     13 C         139.3532  138.8866  163.5827 C.2     1  UNL1        0.0111
     14 H         141.6426  141.6649  159.9227 H       1  UNL1        0.1246
     15 C         139.3555  142.8310  162.0129 C.ar    1  UNL1        0.2478
     16 N         138.0811  143.5553  161.6953 N.ar    1  UNL1       -0.1096
     17 N         137.7892  144.4972  162.8257 N.ar    1  UNL1       -0.1116
     18 C         138.8833  144.3549  163.8418 C.ar    1  UNL1        0.2267
     19 C         138.9906  145.1100  165.1335 C.3     1  UNL1        0.0967
     20 O         139.8514  143.3251  163.3395 O.2     1  UNL1       -0.4213
     21 C         141.7834  139.0953  158.8419 C.ar    1  UNL1        0.1319
     22 N         141.6484  137.6791  158.3664 N.ar    1  UNL1       -0.2282
     23 C         142.5590  137.4969  157.1884 C.ar    1  UNL1        0.1171
     24 C         143.2568  138.8005  156.9360 C.ar    1  UNL1        0.0942
     25 N         142.7774  139.7883  157.9579 N.ar    1  UNL1       -0.3385
     26 H         143.0647  140.7268  158.0348 H       1  UNL1        0.1672
     27 C         142.7401  136.2329  156.4012 C.ar    1  UNL1        0.1006
     28 C         142.3854  136.1996  154.9441 C.ar    1  UNL1        0.0230
     29 C         142.5665  134.9358  154.1568 C.ar    1  UNL1        0.0328
     30 C         143.1021  133.7052  154.8266 C.ar    1  UNL1        0.1592
     31 F         143.2832  132.4412  154.0394 F       1  UNL1       -0.2025
     32 C         143.4568  133.7385  156.2837 C.ar    1  UNL1        0.1284
     33 N         143.2757  135.0023  157.0710 N.ar    1  UNL1       -0.2399
     34 N         140.0706  144.5783  158.4505 N.ar    1  UNL1       -0.2497
     35 C         139.6070  143.2398  158.9440 C.ar    1  UNL1        0.0944
     36 C         140.2148  143.0082  160.2956 C.ar    1  UNL1        0.0439
     37 C         141.0539  144.2036  160.6376 C.ar    1  UNL1        0.1194
     38 N         140.9648  145.1740  159.4972 N.ar    1  UNL1       -0.1679
     39 C         140.5828  146.2720  156.5482 C.3     1  UNL1        0.0284
     40 C         139.7042  145.2103  157.1404 C.3     1  UNL1        0.1276
@<TRIPOS>BOND
     1    39    40    1
     2    40    34    1
     3    34    35   ar
     4    35    36   ar
     5     1    36    1
     6     1    15    1
     7    15    16   ar
     8    16    17   ar
     9    17    18   ar
    10    18    19    1
    11    18    20   ar
    12     1     2    1
    13     2     3    1
    14     3    21    1
    15    21    22   ar
    16    22    23   ar
    17    23    27    1
    18    27    28   ar
    19    28    29   ar
    20    29    30   ar
    21    30    31    1
    22    30    32   ar
    23    32    33   ar
    24    23    24   ar
    25    24    25   ar
    26     3     4    1
    27     4     5    1
    28     5     6    2
    29     6     7    1
    30     7     8    2
    31     8     9    1
    32     9    10    1
    33    10    11    2
    34    11    12    1
    35    12    13    2
    36    36    37   ar
    37    37    38   ar
    38    38    34   ar
    39     6     1    1
    40    13     8    1
    41    20    15   ar
    42    25    21   ar
    43    13     5    1
    44    33    27   ar
    45     2    14    1
    46    25    26    1
@<TRIPOS>MOLECULE
*****
 40 46 0 0 0
SMALL
GASTEIGER

@<TRIPOS>ATOM
      1 C         141.5507  141.9939  161.7154 C.3     1  UNL1        0.1706
      2 N         141.7867  141.2365  160.4424 N.3     1  UNL1       -0.2797
      3 C         142.3633  139.8525  160.4890 C.3     1  UNL1        0.1167
      4 C         142.7038  139.2259  161.8086 C.3     1  UNL1        0.0511
      5 C         142.4677  139.9833  163.0817 C.2     1  UNL1       -0.0037
      6 C         141.8912  141.3673  163.0351 C.2     1  UNL1        0.0800
      7 N         141.7704  141.8667  164.4443 N.2     1  UNL1       -0.2519
      8 C         142.2723  140.7914  165.3618 C.2     1  UNL1        0.0627
      9 C         142.3925  140.7218  166.8554 C.3     1  UNL1        0.0717
     10 C         142.9437  139.4882  167.5067 C.2     1  UNL1       -0.0198
     11 C         143.3747  138.3242  166.6645 C.2     1  UNL1       -0.0042
     12 C         143.2545  138.3937  165.1710 C.2     1  UNL1        0.0006
     13 C         142.7033  139.6274  164.5197 C.2     1  UNL1        0.0111
     14 H         142.4212  141.8009  159.8773 H       1  UNL1        0.1246
     15 C         141.1478  143.1026  162.6420 C.ar    1  UNL1        0.2478
     16 N         141.9605  144.3213  162.9644 N.ar    1  UNL1       -0.1096
     17 N         141.1764  145.1591  163.9305 N.ar    1  UNL1       -0.1116
     18 C         139.8791  144.4581  164.2051 C.ar    1  UNL1        0.2267
     19 C         138.7905  144.9430  165.1162 C.3     1  UNL1        0.0967
     20 O         139.8614  143.1871  163.4088 O.2     1  UNL1       -0.4213
     21 C         142.5993  139.0951  159.2159 C.ar    1  UNL1        0.1319
     22 N         142.2550  137.6561  158.9694 N.ar    1  UNL1       -0.2282
     23 C         142.6640  137.3154  157.5670 C.ar    1  UNL1        0.1171
     24 C         143.2611  138.5437  156.9469 C.ar    1  UNL1        0.0942
     25 N         143.2211  139.6437  157.9659 N.ar    1  UNL1       -0.3385
     26 H         143.5459  140.5641  157.8370 H       1  UNL1        0.1672
     27 C         142.5040  135.9805  156.9017 C.ar    1  UNL1        0.1006
     28 C         141.5328  135.8181  155.7702 C.ar    1  UNL1        0.0230
     29 C         141.3728  134.4834  155.1048 C.ar    1  UNL1        0.0328
     30 C         142.1840  133.3110  155.5710 C.ar    1  UNL1        0.1592
     31 F         142.0240  131.9761  154.9056 F       1  UNL1       -0.2025
     32 C         143.1552  133.4733  156.7025 C.ar    1  UNL1        0.1284
     33 N         143.3153  134.8081  157.3678 N.ar    1  UNL1       -0.2399
     34 N         141.0411  144.7182  158.9981 N.ar    1  UNL1       -0.2497
     35 C         141.9370  143.8523  159.8334 C.ar    1  UNL1        0.0944
     36 C         141.0703  143.0056  160.7176 C.ar    1  UNL1        0.0439
     37 C         139.6388  143.3481  160.4288 C.ar    1  UNL1        0.1194
     38 N         139.6208  144.4066  159.3661 N.ar    1  UNL1       -0.1679
     39 C         140.5051  146.2644  156.9802 C.3     1  UNL1        0.0284
     40 C         141.4873  145.7199  157.9746 C.3     1  UNL1        0.1276
@<TRIPOS>BOND
     1    39    40    1
     2    40    34    1
     3    34    35   ar
     4    35    36   ar
     5     1    36    1
     6     1    15    1
     7    15    16   ar
     8    16    17   ar
     9    17    18   ar
    10    18    19    1
    11    18    20   ar
    12     1     2    1
    13     2     3    1
    14     3    21    1
    15    21    22   ar
    16    22    23   ar
    17    23    27    1
    18    27    28   ar
    19    28    29   ar
    20    29    30   ar
    21    30    31    1
    22    30    32   ar
    23    32    33   ar
    24    23    24   ar
    25    24    25   ar
    26     3     4    1
    27     4     5    1
    28     5     6    2
    29     6     7    1
    30     7     8    2
    31     8     9    1
    32     9    10    1
    33    10    11    2
    34    11    12    1
    35    12    13    2
    36    36    37   ar
    37    37    38   ar
    38    38    34   ar
    39     6     1    1
    40    13     8    1
    41    20    15   ar
    42    25    21   ar
    43    13     5    1
    44    33    27   ar
    45     2    14    1
    46    25    26    1
@<TRIPOS>MOLECULE
*****
 40 46 0 0 0
SMALL
GASTEIGER

@<TRIPOS>ATOM
      1 C         140.6805  140.9055  159.9971 C.3     1  UNL1        0.1706
      2 N         141.0446  139.8399  159.0063 N.3     1  UNL1       -0.2797
      3 C         142.3926  139.1850  159.0707 C.3     1  UNL1        0.1167
      4 C         143.3764  139.5958  160.1259 C.3     1  UNL1        0.0511
      5 C         143.0122  140.6614  161.1167 C.2     1  UNL1       -0.0037
      6 C         141.6642  141.3163  161.0523 C.2     1  UNL1        0.0800
      7 N         141.5879  142.3293  162.1559 N.2     1  UNL1       -0.2519
      8 C         142.8887  142.3006  162.9024 C.2     1  UNL1        0.0627
      9 C         143.3853  143.0799  164.0839 C.3     1  UNL1        0.0717
     10 C         144.7622  142.8283  164.6231 C.2     1  UNL1       -0.0198
     11 C         145.6425  141.7975  163.9809 C.2     1  UNL1       -0.0042
     12 C         145.1458  141.0182  162.7994 C.2     1  UNL1        0.0006
     13 C         143.7690  141.2697  162.2601 C.2     1  UNL1        0.0111
     14 H         140.9651  140.2595  158.0800 H       1  UNL1        0.1246
     15 C         139.8778  141.9551  160.7072 C.ar    1  UNL1        0.2478
     16 N         139.7642  143.3970  160.3099 N.ar    1  UNL1       -0.1096
     17 N         138.8640  144.0801  161.2964 N.ar    1  UNL1       -0.1116
     18 C         138.4214  143.0603  162.3034 C.ar    1  UNL1        0.2267
     19 C         137.5118  143.3100  163.4698 C.3     1  UNL1        0.0967
     20 O         139.0480  141.7469  161.9392 O.2     1  UNL1       -0.4213
     21 C         142.7568  138.1193  158.0798 C.ar    1  UNL1        0.1319
     22 N         142.5613  136.6432  158.2609 N.ar    1  UNL1       -0.2282
     23 C         143.0642  135.9542  157.0270 C.ar    1  UNL1        0.1171
     24 C         143.5704  137.0046  156.0834 C.ar    1  UNL1        0.0942
     25 N         143.3805  138.3427  156.7341 N.ar    1  UNL1       -0.3385
     26 H         143.6227  139.2144  156.3460 H       1  UNL1        0.1672
     27 C         143.0612  134.4746  156.7801 C.ar    1  UNL1        0.1006
     28 C         142.0702  133.8754  155.8268 C.ar    1  UNL1        0.0230
     29 C         142.0672  132.3959  155.5799 C.ar    1  UNL1        0.0328
     30 C         143.0552  131.5156  156.2863 C.ar    1  UNL1        0.1592
     31 F         143.0523  130.0360  156.0394 F       1  UNL1       -0.2025
     32 C         144.0462  132.1149  157.2396 C.ar    1  UNL1        0.1284
     33 N         144.0492  133.5944  157.4865 N.ar    1  UNL1       -0.2399
     34 N         137.7800  141.2535  157.4414 N.ar    1  UNL1       -0.2497
     35 C         139.1693  141.5853  157.8997 C.ar    1  UNL1        0.0944
     36 C         139.4180  140.8593  159.1885 C.ar    1  UNL1        0.0439
     37 C         138.1824  140.0789  159.5268 C.ar    1  UNL1        0.1194
     38 N         137.1701  140.3226  158.4470 N.ar    1  UNL1       -0.1679
     39 C         137.0689  143.2373  155.9218 C.3     1  UNL1        0.0284
     40 C         137.1171  141.7634  156.1961 C.3     1  UNL1        0.1276
@<TRIPOS>BOND
     1    39    40    1
     2    40    34    1
     3    34    35   ar
     4    35    36   ar
     5     1    36    1
     6     1    15    1
     7    15    16   ar
     8    16    17   ar
     9    17    18   ar
    10    18    19    1
    11    18    20   ar
    12     1     2    1
    13     2     3    1
    14     3    21    1
    15    21    22   ar
    16    22    23   ar
    17    23    27    1
    18    27    28   ar
    19    28    29   ar
    20    29    30   ar
    21    30    31    1
    22    30    32   ar
    23    32    33   ar
    24    23    24   ar
    25    24    25   ar
    26     3     4    1
    27     4     5    1
    28     5     6    2
    29     6     7    1
    30     7     8    2
    31     8     9    1
    32     9    10    1
    33    10    11    2
    34    11    12    1
    35    12    13    2
    36    36    37   ar
    37    37    38   ar
    38    38    34   ar
    39     6     1    1
    40    13     8    1
    41    20    15   ar
    42    25    21   ar
    43    13     5    1
    44    33    27   ar
    45     2    14    1
    46    25    26    1
@<TRIPOS>MOLECULE
*****
 40 46 0 0 0
SMALL
GASTEIGER

@<TRIPOS>ATOM
      1 C         142.4154  142.6280  160.1416 C.3     1  UNL1        0.1706
      2 N         141.8927  143.2563  158.8838 N.3     1  UNL1       -0.2797
      3 C         140.7199  144.1896  158.9431 C.3     1  UNL1        0.1167
      4 C         140.0699  144.4946  160.2601 C.3     1  UNL1        0.0511
      5 C         140.5927  143.8663  161.5178 C.2     1  UNL1       -0.0037
      6 C         141.7654  142.9330  161.4586 C.2     1  UNL1        0.0800
      7 N         142.0579  142.4671  162.8540 N.2     1  UNL1       -0.2519
      8 C         141.0660  143.1125  163.7757 C.2     1  UNL1        0.0627
      9 C         140.8704  143.0244  165.2603 C.3     1  UNL1        0.0717
     10 C         139.7691  143.8011  165.9190 C.2     1  UNL1       -0.0198
     11 C         138.8635  144.6659  165.0932 C.2     1  UNL1       -0.0042
     12 C         139.0592  144.7540  163.6086 C.2     1  UNL1        0.0006
     13 C         140.1604  143.9773  162.9499 C.2     1  UNL1        0.0111
     14 H         141.6302  142.4928  158.2604 H       1  UNL1        0.1246
     15 C         143.2666  141.7930  161.0518 C.ar    1  UNL1        0.2478
     16 N         144.6257  142.1593  161.5698 N.ar    1  UNL1       -0.1096
     17 N         145.1071  141.0378  162.4420 N.ar    1  UNL1       -0.1116
     18 C         144.0454  139.9784  162.4629 C.ar    1  UNL1        0.2267
     19 C         144.1099  138.6802  163.2115 C.3     1  UNL1        0.0967
     20 O         142.9079  140.4452  161.6036 O.2     1  UNL1       -0.4213
     21 C         140.1971  144.8179  157.6853 C.ar    1  UNL1        0.1319
     22 N         140.4005  146.2421  157.2608 N.ar    1  UNL1       -0.2282
     23 C         139.7083  146.4368  155.9444 C.ar    1  UNL1        0.1171
     24 C         139.0770  145.1329  155.5554 C.ar    1  UNL1        0.0942
     25 N         139.3791  144.1324  156.6313 N.ar    1  UNL1       -0.3385
     26 H         139.0911  143.1911  156.6436 H       1  UNL1        0.1672
     27 C         139.6564  147.7117  155.1556 C.ar    1  UNL1        0.1006
     28 C         140.3079  147.7858  153.8065 C.ar    1  UNL1        0.0230
     29 C         140.2561  149.0606  153.0177 C.ar    1  UNL1        0.0328
     30 C         139.5527  150.2611  153.5779 C.ar    1  UNL1        0.1592
     31 F         139.5008  151.5359  152.7890 F       1  UNL1       -0.2025
     32 C         138.9011  150.1869  154.9270 C.ar    1  UNL1        0.1284
     33 N         138.9530  148.9122  155.7158 N.ar    1  UNL1       -0.2399
     34 N         145.1405  141.7872  157.5086 N.ar    1  UNL1       -0.2497
     35 C         144.4416  142.7673  158.4037 C.ar    1  UNL1        0.0944
     36 C         143.3610  142.0330  159.1407 C.ar    1  UNL1        0.0439
     37 C         143.3921  140.5991  158.7011 C.ar    1  UNL1        0.1194
     38 N         144.4919  140.4473  157.6924 N.ar    1  UNL1       -0.1679
     39 C         147.4674  142.8674  157.0978 C.3     1  UNL1        0.0284
     40 C         146.2867  142.0934  156.5908 C.3     1  UNL1        0.1276
@<TRIPOS>BOND
     1    39    40    1
     2    40    34    1
     3    34    35   ar
     4    35    36   ar
     5     1    36    1
     6     1    15    1
     7    15    16   ar
     8    16    17   ar
     9    17    18   ar
    10    18    19    1
    11    18    20   ar
    12     1     2    1
    13     2     3    1
    14     3    21    1
    15    21    22   ar
    16    22    23   ar
    17    23    27    1
    18    27    28   ar
    19    28    29   ar
    20    29    30   ar
    21    30    31    1
    22    30    32   ar
    23    32    33   ar
    24    23    24   ar
    25    24    25   ar
    26     3     4    1
    27     4     5    1
    28     5     6    2
    29     6     7    1
    30     7     8    2
    31     8     9    1
    32     9    10    1
    33    10    11    2
    34    11    12    1
    35    12    13    2
    36    36    37   ar
    37    37    38   ar
    38    38    34   ar
    39     6     1    1
    40    13     8    1
    41    20    15   ar
    42    25    21   ar
    43    13     5    1
    44    33    27   ar
    45     2    14    1
    46    25    26    1
@<TRIPOS>MOLECULE
*****
 40 46 0 0 0
SMALL
GASTEIGER

@<TRIPOS>ATOM
      1 C         141.3754  141.1286  160.0876 C.3     1  UNL1        0.1706
      2 N         140.8297  141.9780  158.9783 N.3     1  UNL1       -0.2797
      3 C         140.9599  143.4709  159.0433 C.3     1  UNL1        0.1167
      4 C         141.6358  144.1144  160.2177 C.3     1  UNL1        0.0511
      5 C         142.1815  143.2650  161.3270 C.2     1  UNL1       -0.0037
      6 C         142.0513  141.7720  161.2619 C.2     1  UNL1        0.0800
      7 N         142.6819  141.1976  162.4958 N.2     1  UNL1       -0.2519
      8 C         143.2018  142.3355  163.3234 C.2     1  UNL1        0.0627
      9 C         143.9168  142.3733  164.6414 C.3     1  UNL1        0.0717
     10 C         144.3226  143.6887  165.2371 C.2     1  UNL1       -0.0198
     11 C         144.0134  144.9664  164.5147 C.2     1  UNL1       -0.0042
     12 C         143.2983  144.9287  163.1967 C.2     1  UNL1        0.0006
     13 C         142.8925  143.6132  162.6010 C.2     1  UNL1        0.0111
     14 H         139.8328  141.7720  158.9127 H       1  UNL1        0.1246
     15 C         141.7291  139.9085  160.8853 C.ar    1  UNL1        0.2478
     16 N         143.0343  139.1711  160.8367 N.ar    1  UNL1       -0.1096
     17 N         142.9514  138.0185  161.7931 N.ar    1  UNL1       -0.1116
     18 C         141.5949  138.0436  162.4328 C.ar    1  UNL1        0.2267
     19 C         141.0836  137.0713  163.4542 C.3     1  UNL1        0.0967
     20 O         140.8394  139.2117  161.8717 O.2     1  UNL1       -0.4213
     21 C         140.4141  144.3205  157.9339 C.ar    1  UNL1        0.1319
     22 N         140.2161  145.8067  157.9774 N.ar    1  UNL1       -0.2282
     23 C         139.6502  146.2377  156.6568 C.ar    1  UNL1        0.1171
     24 C         139.4985  145.0178  155.7972 C.ar    1  UNL1        0.0942
     25 N         139.9707  143.8329  156.5865 N.ar    1  UNL1       -0.3385
     26 H         139.9867  142.8992  156.2749 H       1  UNL1        0.1672
     27 C         139.2979  147.6420  156.2646 C.ar    1  UNL1        0.1006
     28 C         139.6505  148.1500  154.8980 C.ar    1  UNL1        0.0230
     29 C         139.2982  149.5542  154.5058 C.ar    1  UNL1        0.0328
     30 C         138.5933  150.4506  155.4803 C.ar    1  UNL1        0.1592
     31 F         138.2409  151.8549  155.0881 F       1  UNL1       -0.2025
     32 C         138.2407  149.9427  156.8469 C.ar    1  UNL1        0.1284
     33 N         138.5930  148.5384  157.2391 N.ar    1  UNL1       -0.2399
     34 N         140.6644  138.2590  157.5725 N.ar    1  UNL1       -0.2497
     35 C         141.6191  139.1751  158.2794 C.ar    1  UNL1        0.0944
     36 C         140.8223  140.0614  159.1903 C.ar    1  UNL1        0.0439
     37 C         139.3753  139.6931  159.0463 C.ar    1  UNL1        0.1194
     38 N         139.2778  138.5792  158.0465 N.ar    1  UNL1       -0.1679
     39 C         140.0367  136.7816  155.5297 C.3     1  UNL1        0.0284
     40 C         141.0320  137.2074  156.5680 C.3     1  UNL1        0.1276
@<TRIPOS>BOND
     1    39    40    1
     2    40    34    1
     3    34    35   ar
     4    35    36   ar
     5     1    36    1
     6     1    15    1
     7    15    16   ar
     8    16    17   ar
     9    17    18   ar
    10    18    19    1
    11    18    20   ar
    12     1     2    1
    13     2     3    1
    14     3    21    1
    15    21    22   ar
    16    22    23   ar
    17    23    27    1
    18    27    28   ar
    19    28    29   ar
    20    29    30   ar
    21    30    31    1
    22    30    32   ar
    23    32    33   ar
    24    23    24   ar
    25    24    25   ar
    26     3     4    1
    27     4     5    1
    28     5     6    2
    29     6     7    1
    30     7     8    2
    31     8     9    1
    32     9    10    1
    33    10    11    2
    34    11    12    1
    35    12    13    2
    36    36    37   ar
    37    37    38   ar
    38    38    34   ar
    39     6     1    1
    40    13     8    1
    41    20    15   ar
    42    25    21   ar
    43    13     5    1
    44    33    27   ar
    45     2    14    1
    46    25    26    1
@<TRIPOS>MOLECULE
*****
 40 46 0 0 0
SMALL
GASTEIGER

@<TRIPOS>ATOM
      1 C         140.9318  141.8403  160.7831 C.3     1  UNL1        0.1706
      2 N         140.8339  141.0431  159.5162 N.3     1  UNL1       -0.2797
      3 C         140.2401  139.6659  159.5408 C.3     1  UNL1        0.1167
      4 C         139.7441  139.0859  160.8321 C.3     1  UNL1        0.0511
      5 C         139.8419  139.8831  162.0989 C.2     1  UNL1       -0.0037
      6 C         140.4358  141.2603  162.0744 C.2     1  UNL1        0.0800
      7 N         140.4007  141.8051  163.4715 N.2     1  UNL1       -0.2519
      8 C         139.7851  140.7646  164.3595 C.2     1  UNL1        0.0627
      9 C         139.4944  140.7454  165.8309 C.3     1  UNL1        0.0717
     10 C         138.8584  139.5382  166.4540 C.2     1  UNL1       -0.0198
     11 C         138.5131  138.3503  165.6057 C.2     1  UNL1       -0.0042
     12 C         138.8038  138.3696  164.1343 C.2     1  UNL1        0.0006
     13 C         139.4398  139.5767  163.5112 C.2     1  UNL1        0.0111
     14 H         141.7827  140.9483  159.1540 H       1  UNL1        0.1246
     15 C         141.2389  142.9759  161.7138 C.ar    1  UNL1        0.2478
     16 N         140.2729  144.0296  162.1679 N.ar    1  UNL1       -0.1096
     17 N         141.0031  144.9620  163.0886 N.ar    1  UNL1       -0.1116
     18 C         142.4204  144.4846  163.2033 C.ar    1  UNL1        0.2267
     19 C         143.5020  145.1226  164.0236 C.3     1  UNL1        0.0967
     20 O         142.5662  143.2570  162.3536 O.2     1  UNL1       -0.4213
     21 C         140.1422  138.8687  158.2739 C.ar    1  UNL1        0.1319
     22 N         141.0384  137.7340  157.8748 N.ar    1  UNL1       -0.2282
     23 C         140.5811  137.2302  156.5380 C.ar    1  UNL1        0.1171
     24 C         139.4022  138.0535  156.1110 C.ar    1  UNL1        0.0942
     25 N         139.1309  139.0661  157.1838 N.ar    1  UNL1       -0.3385
     26 H         138.4149  139.7417  157.1741 H       1  UNL1        0.1672
     27 C         141.1949  136.1013  155.7642 C.ar    1  UNL1        0.1006
     28 C         140.7524  135.8287  154.3570 C.ar    1  UNL1        0.0230
     29 C         141.3662  134.6998  153.5832 C.ar    1  UNL1        0.0328
     30 C         142.4224  133.8435  154.2164 C.ar    1  UNL1        0.1592
     31 F         143.0363  132.7146  153.4426 F       1  UNL1       -0.2025
     32 C         142.8649  134.1161  155.6235 C.ar    1  UNL1        0.1284
     33 N         142.2511  135.2449  156.3974 N.ar    1  UNL1       -0.2399
     34 N         141.8006  144.6624  158.2639 N.ar    1  UNL1       -0.2497
     35 C         140.8185  143.9509  159.1468 C.ar    1  UNL1        0.0944
     36 C         141.5345  142.8147  159.8150 C.ar    1  UNL1        0.0439
     37 C         142.9590  142.8240  159.3451 C.ar    1  UNL1        0.1194
     38 N         143.1234  143.9660  158.3864 N.ar    1  UNL1       -0.1679
     39 C         140.0912  146.2670  157.1443 C.3     1  UNL1        0.0284
     40 C         141.5106  145.8602  157.4086 C.3     1  UNL1        0.1276
@<TRIPOS>BOND
     1    39    40    1
     2    40    34    1
     3    34    35   ar
     4    35    36   ar
     5     1    36    1
     6     1    15    1
     7    15    16   ar
     8    16    17   ar
     9    17    18   ar
    10    18    19    1
    11    18    20   ar
    12     1     2    1
    13     2     3    1
    14     3    21    1
    15    21    22   ar
    16    22    23   ar
    17    23    27    1
    18    27    28   ar
    19    28    29   ar
    20    29    30   ar
    21    30    31    1
    22    30    32   ar
    23    32    33   ar
    24    23    24   ar
    25    24    25   ar
    26     3     4    1
    27     4     5    1
    28     5     6    2
    29     6     7    1
    30     7     8    2
    31     8     9    1
    32     9    10    1
    33    10    11    2
    34    11    12    1
    35    12    13    2
    36    36    37   ar
    37    37    38   ar
    38    38    34   ar
    39     6     1    1
    40    13     8    1
    41    20    15   ar
    42    25    21   ar
    43    13     5    1
    44    33    27   ar
    45     2    14    1
    46    25    26    1
@<TRIPOS>MOLECULE
*****
 40 46 0 0 0
SMALL
GASTEIGER

@<TRIPOS>ATOM
      1 C         141.7278  141.7534  160.4820 C.3     1  UNL1        0.1706
      2 N         141.3752  142.4440  159.1980 N.3     1  UNL1       -0.2797
      3 C         140.4748  143.6435  159.2143 C.3     1  UNL1        0.1167
      4 C         139.9269  144.1525  160.5146 C.3     1  UNL1        0.0511
      5 C         140.2795  143.4619  161.7986 C.2     1  UNL1       -0.0037
      6 C         141.1800  142.2624  161.7823 C.2     1  UNL1        0.0800
      7 N         141.3510  141.7920  163.1964 N.2     1  UNL1       -0.2519
      8 C         140.5563  142.7008  164.0866 C.2     1  UNL1        0.0627
      9 C         140.3500  142.7219  165.5721 C.3     1  UNL1        0.0717
     10 C         139.4816  143.7751  166.1938 C.2     1  UNL1       -0.0198
     11 C         138.8193  144.8071  165.3300 C.2     1  UNL1       -0.0042
     12 C         139.0256  144.7860  163.8444 C.2     1  UNL1        0.0006
     13 C         139.8940  143.7329  163.2227 C.2     1  UNL1        0.0111
     14 H         140.9272  141.7475  158.6025 H       1  UNL1        0.1246
     15 C         142.3452  140.7671  161.4287 C.ar    1  UNL1        0.2478
     16 N         141.8305  139.3902  161.7268 N.ar    1  UNL1       -0.1096
     17 N         142.7529  138.7567  162.7259 N.ar    1  UNL1       -0.1116
     18 C         143.8376  139.7423  163.0452 C.ar    1  UNL1        0.2267
     19 C         144.9747  139.5237  163.9988 C.3     1  UNL1        0.0967
     20 O         143.5856  140.9848  162.2435 O.2     1  UNL1       -0.4213
     21 C         140.1221  144.3341  157.9302 C.ar    1  UNL1        0.1319
     22 N         140.1123  145.8163  157.7002 N.ar    1  UNL1       -0.2282
     23 C         139.7015  146.0621  156.2786 C.ar    1  UNL1        0.1171
     24 C         139.4575  144.7317  155.6301 C.ar    1  UNL1        0.0942
     25 N         139.7174  143.6638  156.6508 N.ar    1  UNL1       -0.3385
     26 H         139.6366  142.6933  156.5064 H       1  UNL1        0.1672
     27 C         139.5597  147.4028  155.6210 C.ar    1  UNL1        0.1006
     28 C         138.7528  148.4807  156.2820 C.ar    1  UNL1        0.0230
     29 C         138.6109  149.8214  155.6245 C.ar    1  UNL1        0.0328
     30 C         139.2761  150.0842  154.3060 C.ar    1  UNL1        0.1592
     31 F         139.1343  151.4250  153.6484 F       1  UNL1       -0.2025
     32 C         140.0831  149.0063  153.6450 C.ar    1  UNL1        0.1284
     33 N         140.2249  147.6656  154.3025 N.ar    1  UNL1       -0.2399
     34 N         143.0292  139.2372  157.8286 N.ar    1  UNL1       -0.2497
     35 C         141.9123  139.8280  158.6370 C.ar    1  UNL1        0.0944
     36 C         142.4901  140.9019  159.5105 C.ar    1  UNL1        0.0439
     37 C         143.9641  140.9748  159.2418 C.ar    1  UNL1        0.1194
     38 N         144.2972  139.9459  158.2023 N.ar    1  UNL1       -0.1679
     39 C         142.6790  136.7213  157.2830 C.3     1  UNL1        0.0284
     40 C         142.9005  138.1317  156.8229 C.3     1  UNL1        0.1276
@<TRIPOS>BOND
     1    39    40    1
     2    40    34    1
     3    34    35   ar
     4    35    36   ar
     5     1    36    1
     6     1    15    1
     7    15    16   ar
     8    16    17   ar
     9    17    18   ar
    10    18    19    1
    11    18    20   ar
    12     1     2    1
    13     2     3    1
    14     3    21    1
    15    21    22   ar
    16    22    23   ar
    17    23    27    1
    18    27    28   ar
    19    28    29   ar
    20    29    30   ar
    21    30    31    1
    22    30    32   ar
    23    32    33   ar
    24    23    24   ar
    25    24    25   ar
    26     3     4    1
    27     4     5    1
    28     5     6    2
    29     6     7    1
    30     7     8    2
    31     8     9    1
    32     9    10    1
    33    10    11    2
    34    11    12    1
    35    12    13    2
    36    36    37   ar
    37    37    38   ar
    38    38    34   ar
    39     6     1    1
    40    13     8    1
    41    20    15   ar
    42    25    21   ar
    43    13     5    1
    44    33    27   ar
    45     2    14    1
    46    25    26    1
@<TRIPOS>MOLECULE
*****
 40 46 0 0 0
SMALL
GASTEIGER

@<TRIPOS>ATOM
      1 C         142.4723  139.9346  159.4604 C.3     1  UNL1        0.1706
      2 N         143.2112  140.3595  158.2262 N.3     1  UNL1       -0.2797
      3 C         144.1083  141.5611  158.2654 C.3     1  UNL1        0.1167
      4 C         144.2664  142.3377  159.5389 C.3     1  UNL1        0.0511
      5 C         143.5275  141.9129  160.7732 C.2     1  UNL1       -0.0037
      6 C         142.6304  140.7113  160.7339 C.2     1  UNL1        0.0800
      7 N         142.0343  140.5332  162.0988 N.2     1  UNL1       -0.2519
      8 C         142.5629  141.6246  162.9816 C.2     1  UNL1        0.0627
      9 C         142.3232  141.9522  164.4256 C.3     1  UNL1        0.0717
     10 C         143.0063  143.1325  165.0503 C.2     1  UNL1       -0.0198
     11 C         143.9292  143.9852  164.2310 C.2     1  UNL1       -0.0042
     12 C         144.1689  143.6576  162.7870 C.2     1  UNL1        0.0006
     13 C         143.4858  142.4773  162.1623 C.2     1  UNL1        0.0111
     14 H         142.5082  140.5402  157.5096 H       1  UNL1        0.1246
     15 C         141.5696  139.1447  160.3611 C.ar    1  UNL1        0.2478
     16 N         141.9652  137.9520  161.1800 N.ar    1  UNL1       -0.1096
     17 N         140.7528  137.4791  161.9260 N.ar    1  UNL1       -0.1116
     18 C         139.6079  138.3796  161.5681 C.ar    1  UNL1        0.2267
     19 C         138.2045  138.2700  162.0864 C.3     1  UNL1        0.0967
     20 O         140.1127  139.4091  160.6009 O.2     1  UNL1       -0.4213
     21 C         144.8473  141.9860  157.0311 C.ar    1  UNL1        0.1319
     22 N         146.3286  141.8932  156.8147 N.ar    1  UNL1       -0.2282
     23 C         146.6315  142.4282  155.4464 C.ar    1  UNL1        0.1171
     24 C         145.3373  142.8515  154.8173 C.ar    1  UNL1        0.0942
     25 N         144.2346  142.5782  155.7967 N.ar    1  UNL1       -0.3385
     26 H         143.2769  142.7563  155.6543 H       1  UNL1        0.1672
     27 C         147.9902  142.5231  154.8177 C.ar    1  UNL1        0.1006
     28 C         149.1346  141.7348  155.3824 C.ar    1  UNL1        0.0230
     29 C         150.4931  141.8297  154.7537 C.ar    1  UNL1        0.0328
     30 C         150.7073  142.7129  153.5604 C.ar    1  UNL1        0.1592
     31 F         152.0659  142.8078  152.9317 F       1  UNL1       -0.2025
     32 C         149.5629  143.5012  152.9957 C.ar    1  UNL1        0.1284
     33 N         148.2043  143.4063  153.6244 N.ar    1  UNL1       -0.2399
     34 N         141.9337  136.9135  157.0839 N.ar    1  UNL1       -0.2497
     35 C         142.7896  137.6950  158.0362 C.ar    1  UNL1        0.0944
     36 C         142.0007  138.8836  158.4998 C.ar    1  UNL1        0.0439
     37 C         140.6573  138.8367  157.8340 C.ar    1  UNL1        0.1194
     38 N         140.6159  137.6191  156.9589 N.ar    1  UNL1       -0.1679
     39 C         143.6889  135.5248  155.7645 C.3     1  UNL1        0.0284
     40 C         142.3267  135.6485  156.3801 C.3     1  UNL1        0.1276
@<TRIPOS>BOND
     1    39    40    1
     2    40    34    1
     3    34    35   ar
     4    35    36   ar
     5     1    36    1
     6     1    15    1
     7    15    16   ar
     8    16    17   ar
     9    17    18   ar
    10    18    19    1
    11    18    20   ar
    12     1     2    1
    13     2     3    1
    14     3    21    1
    15    21    22   ar
    16    22    23   ar
    17    23    27    1
    18    27    28   ar
    19    28    29   ar
    20    29    30   ar
    21    30    31    1
    22    30    32   ar
    23    32    33   ar
    24    23    24   ar
    25    24    25   ar
    26     3     4    1
    27     4     5    1
    28     5     6    2
    29     6     7    1
    30     7     8    2
    31     8     9    1
    32     9    10    1
    33    10    11    2
    34    11    12    1
    35    12    13    2
    36    36    37   ar
    37    37    38   ar
    38    38    34   ar
    39     6     1    1
    40    13     8    1
    41    20    15   ar
    42    25    21   ar
    43    13     5    1
    44    33    27   ar
    45     2    14    1
    46    25    26    1
@<TRIPOS>MOLECULE
*****
 40 46 0 0 0
SMALL
GASTEIGER

@<TRIPOS>ATOM
      1 C         139.5525  140.9056  159.4361 C.3     1  UNL1        0.1706
      2 N         139.7915  139.5786  158.7789 N.3     1  UNL1       -0.2797
      3 C         140.3052  139.5208  157.3708 C.3     1  UNL1        0.1167
      4 C         140.5798  140.7900  156.6199 C.3     1  UNL1        0.0511
      5 C         140.3408  142.1170  157.2772 C.2     1  UNL1       -0.0037
      6 C         139.8272  142.1747  158.6853 C.2     1  UNL1        0.0800
      7 N         139.6880  143.6181  159.0690 N.2     1  UNL1       -0.2519
      8 C         140.1157  144.4524  157.8981 C.2     1  UNL1        0.0627
      9 C         140.1898  145.9370  157.6971 C.3     1  UNL1        0.0717
     10 C         140.6675  146.4938  156.3888 C.2     1  UNL1       -0.0198
     11 C         141.0709  145.5660  155.2814 C.2     1  UNL1       -0.0042
     12 C         140.9968  144.0814  155.4823 C.2     1  UNL1        0.0006
     13 C         140.5192  143.5246  156.7906 C.2     1  UNL1        0.0111
     14 H         138.9013  139.0808  158.7882 H       1  UNL1        0.1246
     15 C         139.1723  141.9134  160.4801 C.ar    1  UNL1        0.2478
     16 N         137.8310  142.5687  160.6257 N.ar    1  UNL1       -0.1096
     17 N         137.8964  143.5032  161.7973 N.ar    1  UNL1       -0.1116
     18 C         139.2782  143.4252  162.3758 C.ar    1  UNL1        0.2267
     19 C         139.7828  144.1948  163.5604 C.3     1  UNL1        0.0967
     20 O         140.0667  142.4427  161.5616 O.2     1  UNL1       -0.4213
     21 C         140.5442  138.1938  156.7134 C.ar    1  UNL1        0.1319
     22 N         141.6559  137.2390  157.0334 N.ar    1  UNL1       -0.2282
     23 C         141.5123  136.0438  156.1385 C.ar    1  UNL1        0.1171
     24 C         140.3119  136.2599  155.2655 C.ar    1  UNL1        0.0942
     25 N         139.7135  137.5887  155.6208 N.ar    1  UNL1       -0.3385
     26 H         138.9157  137.9928  155.2092 H       1  UNL1        0.1672
     27 C         142.4114  134.8431  156.1200 C.ar    1  UNL1        0.1006
     28 C         142.3879  133.9067  154.9484 C.ar    1  UNL1        0.0230
     29 C         143.2869  132.7061  154.9298 C.ar    1  UNL1        0.0328
     30 C         144.2094  132.4420  156.0827 C.ar    1  UNL1        0.1592
     31 F         145.1084  131.2414  156.0641 F       1  UNL1       -0.2025
     32 C         144.2328  133.3785  157.2542 C.ar    1  UNL1        0.1284
     33 N         143.3338  134.5790  157.2729 N.ar    1  UNL1       -0.2399
     34 N         139.2375  138.5060  162.4707 N.ar    1  UNL1       -0.2497
     35 C         140.0679  139.3394  161.5401 C.ar    1  UNL1        0.0944
     36 C         139.1458  139.9864  160.5495 C.ar    1  UNL1        0.0439
     37 C         137.7455  139.5529  160.8679 C.ar    1  UNL1        0.1194
     38 N         137.8022  138.6379  162.0553 N.ar    1  UNL1       -0.1679
     39 C         139.2218  137.9130  165.0001 C.3     1  UNL1        0.0284
     40 C         139.7521  137.6848  163.6156 C.3     1  UNL1        0.1276
@<TRIPOS>BOND
     1    39    40    1
     2    40    34    1
     3    34    35   ar
     4    35    36   ar
     5     1    36    1
     6     1    15    1
     7    15    16   ar
     8    16    17   ar
     9    17    18   ar
    10    18    19    1
    11    18    20   ar
    12     1     2    1
    13     2     3    1
    14     3    21    1
    15    21    22   ar
    16    22    23   ar
    17    23    27    1
    18    27    28   ar
    19    28    29   ar
    20    29    30   ar
    21    30    31    1
    22    30    32   ar
    23    32    33   ar
    24    23    24   ar
    25    24    25   ar
    26     3     4    1
    27     4     5    1
    28     5     6    2
    29     6     7    1
    30     7     8    2
    31     8     9    1
    32     9    10    1
    33    10    11    2
    34    11    12    1
    35    12    13    2
    36    36    37   ar
    37    37    38   ar
    38    38    34   ar
    39     6     1    1
    40    13     8    1
    41    20    15   ar
    42    25    21   ar
    43    13     5    1
    44    33    27   ar
    45     2    14    1
    46    25    26    1
