@<TRIPOS>MOLECULE
*****
 36 39 0 0 0
SMALL
GASTEIGER

@<TRIPOS>ATOM
      1 C         138.5047  142.2859  161.1606 C.ar    1  UNL1        0.1373
      2 N         138.6472  143.2990  160.0637 N.ar    1  UNL1       -0.1987
      3 C         139.5235  143.0066  158.8819 C.ar    1  UNL1        0.2214
      4 N         140.2573  141.7012  158.7971 N.ar    1  UNL1       -0.2119
      5 C         140.1149  140.6881  159.8940 C.ar    1  UNL1        0.1091
      6 C         139.2386  140.9804  161.0758 C.ar    1  UNL1        0.1039
      7 N         139.6659  144.0198  157.7849 N.pl3   1  UNL1       -0.2753
      8 C         138.9191  143.8401  156.4965 C.3     1  UNL1        0.1109
      9 C         139.0615  144.8532  155.3996 C.3     1  UNL1        0.0939
     10 N         139.9507  146.0460  155.5910 N.3     1  UNL1       -0.2697
     11 C         140.6976  146.2256  156.8794 C.3     1  UNL1        0.0939
     12 C         140.5551  145.2124  157.9764 C.3     1  UNL1        0.1109
     13 C         140.0931  147.0591  154.4940 C.3     1  UNL1        0.0747
     14 C         139.6422  148.4725  154.7153 C.3     1  UNL1        0.0457
     15 C         140.3025  149.5955  153.9719 C.3     1  UNL1        0.0065
     16 C         139.8516  151.0089  154.1931 C.3     1  UNL1        0.0322
     17 C         138.7402  151.2993  155.1577 C.3     1  UNL1        0.1422
     18 O         138.0798  150.1762  155.9011 O.3     1  UNL1       -0.3537
     19 C         138.5308  148.7628  155.6799 C.3     1  UNL1        0.1435
     20 C         139.0961  139.9673  162.1728 C.2     1  UNL1        0.2503
     21 O         137.7355  139.4717  162.5640 O.2     1  UNL1       -0.2700
     22 N         140.3144  139.4497  162.8785 N.am    1  UNL1       -0.2968
     23 H         141.2074  139.7750  162.6217 H       1  UNL1        0.1501
     24 C         140.1720  138.4366  163.9754 C.3     1  UNL1        0.1166
     25 C         139.8329  138.8810  165.3674 C.ar    1  UNL1       -0.0026
     26 C         138.4488  138.6703  165.9057 C.ar    1  UNL1       -0.0026
     27 C         138.1097  139.1146  167.2977 C.ar    1  UNL1       -0.0003
     28 C         139.1548  139.7697  168.1514 C.ar    1  UNL1       -0.0000
     29 C         140.5390  139.9804  167.6131 C.ar    1  UNL1       -0.0003
     30 C         140.8780  139.5360  166.2211 C.ar    1  UNL1       -0.0026
     31 N         137.6284  142.5782  162.3424 N.pl3   1  UNL1       -0.3179
     32 H         136.8953  141.9639  162.5756 H       1  UNL1        0.1482
     33 C         137.8690  143.8066  163.1689 C.3     1  UNL1        0.0881
     34 C         138.8813  142.3420  165.0611 C.3     1  UNL1        0.0017
     35 C         138.4354  143.6808  164.5521 C.3     1  UNL1        0.0196
     36 C         138.5560  144.8937  165.4264 C.3     1  UNL1        0.0017
@<TRIPOS>BOND
     1    34    35    1
     2    35    36    1
     3    35    33    1
     4    33    31    1
     5    31     1    1
     6     1     2   ar
     7     2     3   ar
     8     3     7    1
     9     7     8    1
    10     8     9    1
    11     9    10    1
    12    10    13    1
    13    13    14    1
    14    14    15    1
    15    15    16    1
    16    16    17    1
    17    17    18    1
    18    18    19    1
    19    10    11    1
    20    11    12    1
    21     3     4   ar
    22     4     5   ar
    23     5     6   ar
    24     6    20    1
    25    20    21    2
    26    20    22   am
    27    22    24    1
    28    24    25    1
    29    25    26   ar
    30    26    27   ar
    31    27    28   ar
    32    28    29   ar
    33    29    30   ar
    34     6     1   ar
    35    30    25   ar
    36    12     7    1
    37    19    14    1
    38    31    32    1
    39    22    23    1
@<TRIPOS>MOLECULE
*****
 36 39 0 0 0
SMALL
GASTEIGER

@<TRIPOS>ATOM
      1 C         141.0893  141.8776  162.0928 C.ar    1  UNL1        0.1373
      2 N         140.7328  142.4470  160.7516 N.ar    1  UNL1       -0.1987
      3 C         141.4040  143.6971  160.2651 C.ar    1  UNL1        0.2214
      4 N         142.4316  144.3779  161.1197 N.ar    1  UNL1       -0.2119
      5 C         142.7881  143.8086  162.4608 C.ar    1  UNL1        0.1091
      6 C         142.1169  142.5585  162.9474 C.ar    1  UNL1        0.1039
      7 N         141.0474  144.2664  158.9238 N.pl3   1  UNL1       -0.2753
      8 C         139.8726  143.7223  158.1664 C.3     1  UNL1        0.1109
      9 C         139.5161  144.2916  156.8252 C.3     1  UNL1        0.0939
     10 N         140.3343  145.4050  156.2414 N.3     1  UNL1       -0.2697
     11 C         141.5092  145.9491  156.9989 C.3     1  UNL1        0.0939
     12 C         141.8657  145.3798  158.3401 C.3     1  UNL1        0.1109
     13 C         139.9778  145.9743  154.9003 C.3     1  UNL1        0.0747
     14 C         139.7399  147.4477  154.7501 C.3     1  UNL1        0.0457
     15 C         140.3835  148.2002  153.6234 C.3     1  UNL1        0.0065
     16 C         140.1456  149.6736  153.4732 C.3     1  UNL1        0.0322
     17 C         139.2642  150.3944  154.4496 C.3     1  UNL1        0.1422
     18 O         138.6207  149.6418  155.5763 O.3     1  UNL1       -0.3537
     19 C         138.8585  148.1685  155.7265 C.3     1  UNL1        0.1435
     20 C         142.4735  141.9891  164.2886 C.2     1  UNL1        0.2503
     21 O         142.9879  140.5841  164.3943 O.2     1  UNL1       -0.2700
     22 N         142.3155  142.8249  165.5241 N.am    1  UNL1       -0.2968
     23 H         141.9778  143.7471  165.4548 H       1  UNL1        0.1501
     24 C         142.6720  142.2556  166.8653 C.3     1  UNL1        0.1166
     25 C         141.5886  141.8336  167.8130 C.ar    1  UNL1       -0.0026
     26 C         141.1388  142.7640  168.9002 C.ar    1  UNL1       -0.0026
     27 C         140.0554  142.3420  169.8479 C.ar    1  UNL1       -0.0003
     28 C         139.4217  140.9896  169.7084 C.ar    1  UNL1       -0.0000
     29 C         139.8715  140.0591  168.6211 C.ar    1  UNL1       -0.0003
     30 C         140.9549  140.4812  167.6734 C.ar    1  UNL1       -0.0026
     31 N         140.4182  140.6275  162.5793 N.pl3   1  UNL1       -0.3179
     32 H         140.9160  139.7784  162.6019 H       1  UNL1        0.1482
     33 C         138.9886  140.6710  163.0313 C.3     1  UNL1        0.0881
     34 C         138.8056  142.2403  165.0938 C.3     1  UNL1        0.0017
     35 C         138.6665  140.8779  164.4816 C.3     1  UNL1        0.0196
     36 C         138.2054  139.7226  165.3198 C.3     1  UNL1        0.0017
@<TRIPOS>BOND
     1    34    35    1
     2    35    36    1
     3    35    33    1
     4    33    31    1
     5    31     1    1
     6     1     2   ar
     7     2     3   ar
     8     3     7    1
     9     7     8    1
    10     8     9    1
    11     9    10    1
    12    10    13    1
    13    13    14    1
    14    14    15    1
    15    15    16    1
    16    16    17    1
    17    17    18    1
    18    18    19    1
    19    10    11    1
    20    11    12    1
    21     3     4   ar
    22     4     5   ar
    23     5     6   ar
    24     6    20    1
    25    20    21    2
    26    20    22   am
    27    22    24    1
    28    24    25    1
    29    25    26   ar
    30    26    27   ar
    31    27    28   ar
    32    28    29   ar
    33    29    30   ar
    34     6     1   ar
    35    30    25   ar
    36    12     7    1
    37    19    14    1
    38    31    32    1
    39    22    23    1
@<TRIPOS>MOLECULE
*****
 36 39 0 0 0
SMALL
GASTEIGER

@<TRIPOS>ATOM
      1 C         143.1790  143.3229  162.1494 C.ar    1  UNL1        0.1373
      2 N         142.8277  143.8100  160.7749 N.ar    1  UNL1       -0.1987
      3 C         141.3927  144.0436  160.4060 C.ar    1  UNL1        0.2214
      4 N         140.3090  143.7903  161.4116 N.ar    1  UNL1       -0.2119
      5 C         140.6603  143.3032  162.7861 C.ar    1  UNL1        0.1091
      6 C         142.0953  143.0696  163.1550 C.ar    1  UNL1        0.1039
      7 N         141.0414  144.5307  159.0314 N.pl3   1  UNL1       -0.2753
      8 C         139.8298  143.9906  158.3312 C.3     1  UNL1        0.1109
      9 C         139.4785  144.4776  156.9567 C.3     1  UNL1        0.0939
     10 N         140.3389  145.5048  156.2823 N.3     1  UNL1       -0.2697
     11 C         141.5505  146.0449  156.9824 C.3     1  UNL1        0.0939
     12 C         141.9017  145.5578  158.3570 C.3     1  UNL1        0.1109
     13 C         139.9876  145.9918  154.9077 C.3     1  UNL1        0.0747
     14 C         139.7739  147.4561  154.6627 C.3     1  UNL1        0.0457
     15 C         140.4229  148.1221  153.4858 C.3     1  UNL1        0.0065
     16 C         140.2093  149.5865  153.2408 C.3     1  UNL1        0.0322
     17 C         139.3466  150.3848  154.1726 C.3     1  UNL1        0.1422
     18 O         138.6976  149.7188  155.3495 O.3     1  UNL1       -0.3537
     19 C         138.9112  148.2544  155.5946 C.3     1  UNL1        0.1435
     20 C         142.4466  142.5825  164.5296 C.2     1  UNL1        0.2503
     21 O         143.4818  143.3051  165.3396 O.2     1  UNL1       -0.2700
     22 N         141.7626  141.3728  165.0942 N.am    1  UNL1       -0.2968
     23 H         141.0831  140.8985  164.5626 H       1  UNL1        0.1501
     24 C         142.1138  140.8857  166.4687 C.3     1  UNL1        0.1166
     25 C         141.8727  141.7645  167.6602 C.ar    1  UNL1       -0.0026
     26 C         142.9462  141.9386  168.6932 C.ar    1  UNL1       -0.0026
     27 C         142.7051  142.8174  169.8847 C.ar    1  UNL1       -0.0003
     28 C         141.3905  143.5221  170.0431 C.ar    1  UNL1       -0.0000
     29 C         140.3169  143.3480  169.0101 C.ar    1  UNL1       -0.0003
     30 C         140.5580  142.4692  167.8186 C.ar    1  UNL1       -0.0026
     31 N         144.6141  143.0893  162.5183 N.pl3   1  UNL1       -0.3179
     32 H         145.1165  143.7824  163.0045 H       1  UNL1        0.1482
     33 C         145.2836  141.7996  162.1464 C.3     1  UNL1        0.0881
     34 C         144.0500  139.5185  161.9883 C.3     1  UNL1        0.0017
     35 C         144.8421  140.5147  162.7822 C.3     1  UNL1        0.0196
     36 C         145.1925  140.2261  164.2118 C.3     1  UNL1        0.0017
@<TRIPOS>BOND
     1    34    35    1
     2    35    36    1
     3    35    33    1
     4    33    31    1
     5    31     1    1
     6     1     2   ar
     7     2     3   ar
     8     3     7    1
     9     7     8    1
    10     8     9    1
    11     9    10    1
    12    10    13    1
    13    13    14    1
    14    14    15    1
    15    15    16    1
    16    16    17    1
    17    17    18    1
    18    18    19    1
    19    10    11    1
    20    11    12    1
    21     3     4   ar
    22     4     5   ar
    23     5     6   ar
    24     6    20    1
    25    20    21    2
    26    20    22   am
    27    22    24    1
    28    24    25    1
    29    25    26   ar
    30    26    27   ar
    31    27    28   ar
    32    28    29   ar
    33    29    30   ar
    34     6     1   ar
    35    30    25   ar
    36    12     7    1
    37    19    14    1
    38    31    32    1
    39    22    23    1
@<TRIPOS>MOLECULE
*****
 36 39 0 0 0
SMALL
GASTEIGER

@<TRIPOS>ATOM
      1 C         140.9993  143.2919  162.4884 C.ar    1  UNL1        0.1373
      2 N         140.8781  144.0264  161.1862 N.ar    1  UNL1       -0.1987
      3 C         140.8693  143.2652  159.8937 C.ar    1  UNL1        0.2214
      4 N         140.9817  141.7695  159.9034 N.ar    1  UNL1       -0.2119
      5 C         141.1030  141.0350  161.2056 C.ar    1  UNL1        0.1091
      6 C         141.1118  141.7961  162.4981 C.ar    1  UNL1        0.1039
      7 N         140.7480  143.9998  158.5915 N.pl3   1  UNL1       -0.2753
      8 C         141.7719  145.0284  158.2125 C.3     1  UNL1        0.1109
      9 C         141.6506  145.7630  156.9104 C.3     1  UNL1        0.0939
     10 N         140.5055  145.4690  155.9871 N.3     1  UNL1       -0.2697
     11 C         139.4817  144.4403  156.3661 C.3     1  UNL1        0.0939
     12 C         139.6029  143.7057  157.6683 C.3     1  UNL1        0.1109
     13 C         140.3843  146.2036  154.6849 C.3     1  UNL1        0.0747
     14 C         139.9366  147.6351  154.6703 C.3     1  UNL1        0.0457
     15 C         140.4512  148.5711  153.6172 C.3     1  UNL1        0.0065
     16 C         140.0036  150.0027  153.6025 C.3     1  UNL1        0.0322
     17 C         139.0413  150.4982  154.6409 C.3     1  UNL1        0.1422
     18 O         138.5266  149.5623  155.6940 O.3     1  UNL1       -0.3537
     19 C         138.9743  148.1307  155.7087 C.3     1  UNL1        0.1435
     20 C         141.2330  141.0615  163.8003 C.2     1  UNL1        0.2503
     21 O         142.5784  140.6052  164.2815 O.2     1  UNL1       -0.2700
     22 N         140.0089  140.7833  164.6213 N.am    1  UNL1       -0.2968
     23 H         139.1258  141.0828  164.3054 H       1  UNL1        0.1501
     24 C         140.1301  140.0487  165.9234 C.3     1  UNL1        0.1166
     25 C         140.0812  140.8045  167.2182 C.ar    1  UNL1       -0.0026
     26 C         140.5308  142.2345  167.2694 C.ar    1  UNL1       -0.0026
     27 C         140.4819  142.9902  168.5642 C.ar    1  UNL1       -0.0003
     28 C         139.9833  142.3159  169.8078 C.ar    1  UNL1       -0.0000
     29 C         139.5337  140.8857  169.7567 C.ar    1  UNL1       -0.0003
     30 C         139.5826  140.1300  168.4619 C.ar    1  UNL1       -0.0026
     31 N         141.0081  144.0531  163.7809 N.pl3   1  UNL1       -0.3179
     32 H         141.7282  143.9034  164.4354 H       1  UNL1        0.1482
     33 C         139.9199  145.0422  164.0761 C.3     1  UNL1        0.0881
     34 C         137.7869  143.5665  164.2269 C.3     1  UNL1        0.0017
     35 C         138.6915  144.6065  164.8186 C.3     1  UNL1        0.0196
     36 C         138.3678  145.2107  166.1528 C.3     1  UNL1        0.0017
@<TRIPOS>BOND
     1    34    35    1
     2    35    36    1
     3    35    33    1
     4    33    31    1
     5    31     1    1
     6     1     2   ar
     7     2     3   ar
     8     3     7    1
     9     7     8    1
    10     8     9    1
    11     9    10    1
    12    10    13    1
    13    13    14    1
    14    14    15    1
    15    15    16    1
    16    16    17    1
    17    17    18    1
    18    18    19    1
    19    10    11    1
    20    11    12    1
    21     3     4   ar
    22     4     5   ar
    23     5     6   ar
    24     6    20    1
    25    20    21    2
    26    20    22   am
    27    22    24    1
    28    24    25    1
    29    25    26   ar
    30    26    27   ar
    31    27    28   ar
    32    28    29   ar
    33    29    30   ar
    34     6     1   ar
    35    30    25   ar
    36    12     7    1
    37    19    14    1
    38    31    32    1
    39    22    23    1
@<TRIPOS>MOLECULE
*****
 36 39 0 0 0
SMALL
GASTEIGER

@<TRIPOS>ATOM
      1 C         140.8806  140.7074  163.2322 C.ar    1  UNL1        0.1373
      2 N         141.2046  140.2283  161.8482 N.ar    1  UNL1       -0.1987
      3 C         140.5604  138.9828  161.3157 C.ar    1  UNL1        0.2214
      4 N         139.5923  138.2162  162.1672 N.ar    1  UNL1       -0.2119
      5 C         139.2683  138.6953  163.5512 C.ar    1  UNL1        0.1091
      6 C         139.9125  139.9409  164.0837 C.ar    1  UNL1        0.1039
      7 N         140.8844  138.5037  159.9316 N.pl3   1  UNL1       -0.2753
      8 C         142.2816  138.0748  159.5944 C.3     1  UNL1        0.1109
      9 C         142.6057  137.5957  158.2104 C.3     1  UNL1        0.0939
     10 N         141.5324  137.5456  157.1636 N.3     1  UNL1       -0.2697
     11 C         140.1352  137.9745  157.5008 C.3     1  UNL1        0.0939
     12 C         139.8112  138.4536  158.8849 C.3     1  UNL1        0.1109
     13 C         141.8565  137.0666  155.7796 C.3     1  UNL1        0.0747
     14 C         142.2383  135.6340  155.5520 C.3     1  UNL1        0.0457
     15 C         141.2151  134.6542  155.0591 C.3     1  UNL1        0.0065
     16 C         141.5969  133.2216  154.8315 C.3     1  UNL1        0.0322
     17 C         143.0021  132.7687  155.0968 C.3     1  UNL1        0.1422
     18 O         144.0254  133.7485  155.5896 O.3     1  UNL1       -0.3537
     19 C         143.6435  135.1811  155.8172 C.3     1  UNL1        0.1435
     20 C         139.5885  140.4199  165.4678 C.2     1  UNL1        0.2503
     21 O         139.2139  141.8543  165.6965 O.2     1  UNL1       -0.2700
     22 N         139.6391  139.4646  166.6231 N.am    1  UNL1       -0.2968
     23 H         139.8849  138.5232  166.4730 H       1  UNL1        0.1501
     24 C         139.3151  139.9436  168.0072 C.3     1  UNL1        0.1166
     25 C         140.3623  140.6411  168.8237 C.ar    1  UNL1       -0.0026
     26 C         140.2230  142.1024  169.1319 C.ar    1  UNL1       -0.0026
     27 C         141.2702  142.7999  169.9485 C.ar    1  UNL1       -0.0003
     28 C         142.4568  142.0361  170.4569 C.ar    1  UNL1       -0.0000
     29 C         142.5962  140.5747  170.1487 C.ar    1  UNL1       -0.0003
     30 C         141.5490  139.8772  169.3322 C.ar    1  UNL1       -0.0026
     31 N         141.5248  141.9530  163.7647 N.pl3   1  UNL1       -0.3179
     32 H         141.0386  142.8087  163.7379 H       1  UNL1        0.1482
     33 C         142.9097  141.8949  164.3379 C.3     1  UNL1        0.0881
     34 C         143.2492  142.3675  166.8700 C.3     1  UNL1        0.0017
     35 C         143.1224  141.3941  165.7357 C.3     1  UNL1        0.0196
     36 C         143.2084  139.9199  165.9993 C.3     1  UNL1        0.0017
@<TRIPOS>BOND
     1    34    35    1
     2    35    36    1
     3    35    33    1
     4    33    31    1
     5    31     1    1
     6     1     2   ar
     7     2     3   ar
     8     3     7    1
     9     7     8    1
    10     8     9    1
    11     9    10    1
    12    10    13    1
    13    13    14    1
    14    14    15    1
    15    15    16    1
    16    16    17    1
    17    17    18    1
    18    18    19    1
    19    10    11    1
    20    11    12    1
    21     3     4   ar
    22     4     5   ar
    23     5     6   ar
    24     6    20    1
    25    20    21    2
    26    20    22   am
    27    22    24    1
    28    24    25    1
    29    25    26   ar
    30    26    27   ar
    31    27    28   ar
    32    28    29   ar
    33    29    30   ar
    34     6     1   ar
    35    30    25   ar
    36    12     7    1
    37    19    14    1
    38    31    32    1
    39    22    23    1
@<TRIPOS>MOLECULE
*****
 36 39 0 0 0
SMALL
GASTEIGER

@<TRIPOS>ATOM
      1 C         138.0955  140.5865  163.5801 C.ar    1  UNL1        0.1373
      2 N         138.1272  140.5773  162.0805 N.ar    1  UNL1       -0.1987
      3 C         138.7592  139.4292  161.3507 C.ar    1  UNL1        0.2214
      4 N         139.3594  138.2904  162.1205 N.ar    1  UNL1       -0.2119
      5 C         139.3277  138.2996  163.6201 C.ar    1  UNL1        0.1091
      6 C         138.6958  139.4476  164.3499 C.ar    1  UNL1        0.1039
      7 N         138.7908  139.4201  159.8510 N.pl3   1  UNL1       -0.2753
      8 C         137.9642  140.4040  159.0774 C.3     1  UNL1        0.1109
      9 C         137.9958  140.3949  157.5778 C.3     1  UNL1        0.0939
     10 N         138.8541  139.4018  156.8517 N.3     1  UNL1       -0.2697
     11 C         139.6808  138.4178  157.6253 C.3     1  UNL1        0.0939
     12 C         139.6491  138.4270  159.1250 C.3     1  UNL1        0.1109
     13 C         138.8857  139.3927  155.3521 C.3     1  UNL1        0.0747
     14 C         137.7965  140.0705  154.5748 C.3     1  UNL1        0.0457
     15 C         136.4780  139.3835  154.3762 C.3     1  UNL1        0.0065
     16 C         135.3887  140.0613  153.5989 C.3     1  UNL1        0.0322
     17 C         135.6180  141.4260  153.0202 C.3     1  UNL1        0.1422
     18 O         136.9366  142.1130  153.2189 O.3     1  UNL1       -0.3537
     19 C         138.0258  141.4352  153.9962 C.3     1  UNL1        0.1435
     20 C         138.6641  139.4568  165.8496 C.2     1  UNL1        0.2503
     21 O         137.5443  138.7771  166.5803 O.2     1  UNL1       -0.2700
     22 N         139.7523  140.1457  166.6185 N.am    1  UNL1       -0.2968
     23 H         140.4873  140.5918  166.1389 H       1  UNL1        0.1501
     24 C         139.7207  140.1549  168.1181 C.3     1  UNL1        0.1166
     25 C         140.6824  141.0149  168.8834 C.ar    1  UNL1       -0.0026
     26 C         140.3004  142.4160  169.2589 C.ar    1  UNL1       -0.0026
     27 C         141.2620  143.2760  170.0241 C.ar    1  UNL1       -0.0003
     28 C         142.6057  142.7350  170.4138 C.ar    1  UNL1       -0.0000
     29 C         142.9877  141.3339  170.0382 C.ar    1  UNL1       -0.0003
     30 C         142.0261  140.4738  169.2730 C.ar    1  UNL1       -0.0026
     31 N         137.4636  141.7346  164.3099 N.pl3   1  UNL1       -0.3179
     32 H         136.7462  141.5676  164.9632 H       1  UNL1        0.1482
     33 C         137.9247  143.1370  164.0445 C.3     1  UNL1        0.0881
     34 C         138.5104  145.0501  165.7020 C.3     1  UNL1        0.0017
     35 C         138.8981  143.7956  164.9766 C.3     1  UNL1        0.0196
     36 C         140.2590  143.1998  165.1833 C.3     1  UNL1        0.0017
@<TRIPOS>BOND
     1    34    35    1
     2    35    36    1
     3    35    33    1
     4    33    31    1
     5    31     1    1
     6     1     2   ar
     7     2     3   ar
     8     3     7    1
     9     7     8    1
    10     8     9    1
    11     9    10    1
    12    10    13    1
    13    13    14    1
    14    14    15    1
    15    15    16    1
    16    16    17    1
    17    17    18    1
    18    18    19    1
    19    10    11    1
    20    11    12    1
    21     3     4   ar
    22     4     5   ar
    23     5     6   ar
    24     6    20    1
    25    20    21    2
    26    20    22   am
    27    22    24    1
    28    24    25    1
    29    25    26   ar
    30    26    27   ar
    31    27    28   ar
    32    28    29   ar
    33    29    30   ar
    34     6     1   ar
    35    30    25   ar
    36    12     7    1
    37    19    14    1
    38    31    32    1
    39    22    23    1
@<TRIPOS>MOLECULE
*****
 36 39 0 0 0
SMALL
GASTEIGER

@<TRIPOS>ATOM
      1 C         144.4433  142.9826  161.8901 C.ar    1  UNL1        0.1373
      2 N         145.1895  142.6809  160.6243 N.ar    1  UNL1       -0.1987
      3 C         144.4869  142.7636  159.3016 C.ar    1  UNL1        0.2214
      4 N         143.0382  143.1480  159.2446 N.ar    1  UNL1       -0.2119
      5 C         142.2920  143.4497  160.5104 C.ar    1  UNL1        0.1091
      6 C         142.9945  143.3670  161.8331 C.ar    1  UNL1        0.1039
      7 N         145.2332  142.4619  158.0359 N.pl3   1  UNL1       -0.2753
      8 C         146.6482  142.9310  157.8695 C.3     1  UNL1        0.1109
      9 C         147.3945  142.6293  156.6038 C.3     1  UNL1        0.0939
     10 N         146.7257  141.8584  155.5044 N.3     1  UNL1       -0.2697
     11 C         145.3107  141.3893  155.6708 C.3     1  UNL1        0.0939
     12 C         144.5645  141.6911  156.9365 C.3     1  UNL1        0.1109
     13 C         147.4720  141.5567  154.2387 C.3     1  UNL1        0.0747
     14 C         148.8048  142.1959  153.9833 C.3     1  UNL1        0.0457
     15 C         150.0591  141.5375  154.4763 C.3     1  UNL1        0.0065
     16 C         151.3919  142.1767  154.2209 C.3     1  UNL1        0.0322
     17 C         151.4703  143.4743  153.4725 C.3     1  UNL1        0.1422
     18 O         150.2159  144.1327  152.9795 O.3     1  UNL1       -0.3537
     19 C         148.8832  143.4935  153.2349 C.3     1  UNL1        0.1435
     20 C         142.2483  143.6688  163.0989 C.2     1  UNL1        0.2503
     21 O         142.8532  144.5772  164.1278 O.2     1  UNL1       -0.2700
     22 N         140.8970  143.0620  163.3356 N.am    1  UNL1       -0.2968
     23 H         140.5000  142.4658  162.6603 H       1  UNL1        0.1501
     24 C         140.1508  143.3637  164.6013 C.3     1  UNL1        0.1166
     25 C         140.0687  142.3325  165.6875 C.ar    1  UNL1       -0.0026
     26 C         140.4904  142.6795  167.0846 C.ar    1  UNL1       -0.0026
     27 C         140.4083  141.6483  168.1708 C.ar    1  UNL1       -0.0003
     28 C         139.9044  140.2701  167.8600 C.ar    1  UNL1       -0.0000
     29 C         139.4826  139.9230  166.4629 C.ar    1  UNL1       -0.0003
     30 C         139.5647  140.9542  165.3767 C.ar    1  UNL1       -0.0026
     31 N         145.1459  142.9000  163.2128 N.pl3   1  UNL1       -0.3179
     32 H         145.3594  143.7230  163.7090 H       1  UNL1        0.1482
     33 C         145.5230  141.5633  163.7794 C.3     1  UNL1        0.0881
     34 C         144.3537  139.2638  163.4710 C.3     1  UNL1        0.0017
     35 C         144.4544  140.5864  164.1716 C.3     1  UNL1        0.0196
     36 C         143.4866  140.9320  165.2642 C.3     1  UNL1        0.0017
@<TRIPOS>BOND
     1    34    35    1
     2    35    36    1
     3    35    33    1
     4    33    31    1
     5    31     1    1
     6     1     2   ar
     7     2     3   ar
     8     3     7    1
     9     7     8    1
    10     8     9    1
    11     9    10    1
    12    10    13    1
    13    13    14    1
    14    14    15    1
    15    15    16    1
    16    16    17    1
    17    17    18    1
    18    18    19    1
    19    10    11    1
    20    11    12    1
    21     3     4   ar
    22     4     5   ar
    23     5     6   ar
    24     6    20    1
    25    20    21    2
    26    20    22   am
    27    22    24    1
    28    24    25    1
    29    25    26   ar
    30    26    27   ar
    31    27    28   ar
    32    28    29   ar
    33    29    30   ar
    34     6     1   ar
    35    30    25   ar
    36    12     7    1
    37    19    14    1
    38    31    32    1
    39    22    23    1
@<TRIPOS>MOLECULE
*****
 36 39 0 0 0
SMALL
GASTEIGER

@<TRIPOS>ATOM
      1 C         139.8944  140.4703  162.6288 C.ar    1  UNL1        0.1373
      2 N         140.2656  140.1272  161.2166 N.ar    1  UNL1       -0.1987
      3 C         140.5969  138.7106  160.8513 C.ar    1  UNL1        0.2214
      4 N         140.5571  137.6371  161.8982 N.ar    1  UNL1       -0.2119
      5 C         140.1859  137.9803  163.3104 C.ar    1  UNL1        0.1091
      6 C         139.8546  139.3969  163.6757 C.ar    1  UNL1        0.1039
      7 N         140.9681  138.3675  159.4389 N.pl3   1  UNL1       -0.2753
      8 C         139.9031  138.2637  158.3877 C.3     1  UNL1        0.1109
      9 C         140.2743  137.9206  156.9755 C.3     1  UNL1        0.0939
     10 N         141.7104  137.6813  156.6144 N.3     1  UNL1       -0.2697
     11 C         142.7754  137.7851  157.6656 C.3     1  UNL1        0.0939
     12 C         142.4042  138.1282  159.0779 C.3     1  UNL1        0.1109
     13 C         142.0815  137.3382  155.2021 C.3     1  UNL1        0.0747
     14 C         142.0435  135.9109  154.7423 C.3     1  UNL1        0.0457
     15 C         142.9673  134.9006  155.3552 C.3     1  UNL1        0.0065
     16 C         142.9293  133.4733  154.8953 C.3     1  UNL1        0.0322
     17 C         141.9674  133.0564  153.8226 C.3     1  UNL1        0.1422
     18 O         141.0436  134.0667  153.2096 O.3     1  UNL1       -0.3537
     19 C         141.0816  135.4940  153.6695 C.3     1  UNL1        0.1435
     20 C         139.4834  139.7400  165.0880 C.2     1  UNL1        0.2503
     21 O         138.0945  140.2089  165.4057 O.2     1  UNL1       -0.2700
     22 N         140.5012  139.6142  166.1827 N.am    1  UNL1       -0.2968
     23 H         141.4129  139.3065  165.9742 H       1  UNL1        0.1501
     24 C         140.1301  139.9573  167.5949 C.3     1  UNL1        0.1166
     25 C         140.9581  140.9384  168.3708 C.ar    1  UNL1       -0.0026
     26 C         140.3137  142.1495  168.9771 C.ar    1  UNL1       -0.0026
     27 C         141.1417  143.1306  169.7530 C.ar    1  UNL1       -0.0003
     28 C         142.6141  142.9005  169.9225 C.ar    1  UNL1       -0.0000
     29 C         143.2587  141.6892  169.3161 C.ar    1  UNL1       -0.0003
     30 C         142.4307  140.7082  168.5403 C.ar    1  UNL1       -0.0026
     31 N         139.5631  141.8869  162.9941 N.pl3   1  UNL1       -0.3179
     32 H         138.6311  142.2013  162.9511 H       1  UNL1        0.1482
     33 C         140.6517  142.8246  163.4250 C.3     1  UNL1        0.0881
     34 C         142.2627  142.8013  165.4632 C.3     1  UNL1        0.0017
     35 C         140.9034  143.0614  164.8847 C.3     1  UNL1        0.0196
     36 C         139.7959  143.5584  165.7657 C.3     1  UNL1        0.0017
@<TRIPOS>BOND
     1    34    35    1
     2    35    36    1
     3    35    33    1
     4    33    31    1
     5    31     1    1
     6     1     2   ar
     7     2     3   ar
     8     3     7    1
     9     7     8    1
    10     8     9    1
    11     9    10    1
    12    10    13    1
    13    13    14    1
    14    14    15    1
    15    15    16    1
    16    16    17    1
    17    17    18    1
    18    18    19    1
    19    10    11    1
    20    11    12    1
    21     3     4   ar
    22     4     5   ar
    23     5     6   ar
    24     6    20    1
    25    20    21    2
    26    20    22   am
    27    22    24    1
    28    24    25    1
    29    25    26   ar
    30    26    27   ar
    31    27    28   ar
    32    28    29   ar
    33    29    30   ar
    34     6     1   ar
    35    30    25   ar
    36    12     7    1
    37    19    14    1
    38    31    32    1
    39    22    23    1
@<TRIPOS>MOLECULE
*****
 36 39 0 0 0
SMALL
GASTEIGER

@<TRIPOS>ATOM
      1 C         139.8268  139.1373  161.4610 C.ar    1  UNL1        0.1373
      2 N         140.0262  138.3968  160.1719 N.ar    1  UNL1       -0.1987
      3 C         141.1498  138.7778  159.2541 C.ar    1  UNL1        0.2214
      4 N         142.0741  139.8993  159.6255 N.ar    1  UNL1       -0.2119
      5 C         141.8747  140.6398  160.9146 C.ar    1  UNL1        0.1091
      6 C         140.7510  140.2588  161.8323 C.ar    1  UNL1        0.1039
      7 N         141.3492  138.0372  157.9650 N.pl3   1  UNL1       -0.2753
      8 C         140.1732  137.7344  157.0844 C.3     1  UNL1        0.1109
      9 C         140.3725  136.9939  155.7953 C.3     1  UNL1        0.0939
     10 N         141.7479  136.5561  155.3867 N.3     1  UNL1       -0.2697
     11 C         142.9238  136.8588  156.2673 C.3     1  UNL1        0.0939
     12 C         142.7244  137.5994  157.5565 C.3     1  UNL1        0.1109
     13 C         141.9472  135.8155  154.0976 C.3     1  UNL1        0.0747
     14 C         141.7105  134.3355  154.0386 C.3     1  UNL1        0.0457
     15 C         141.7107  133.6281  152.7159 C.3     1  UNL1        0.0065
     16 C         141.4740  132.1481  152.6568 C.3     1  UNL1        0.0322
     17 C         141.2372  131.3754  153.9204 C.3     1  UNL1        0.1422
     18 O         141.2370  132.0828  155.2431 O.3     1  UNL1       -0.3537
     19 C         141.4737  133.5628  155.3022 C.3     1  UNL1        0.1435
     20 C         140.5516  140.9994  163.1215 C.2     1  UNL1        0.2503
     21 O         139.1823  141.4716  163.5112 O.2     1  UNL1       -0.2700
     22 N         141.7217  141.2678  164.0209 N.am    1  UNL1       -0.2968
     23 H         142.6204  140.9579  163.7651 H       1  UNL1        0.1501
     24 C         141.5224  142.0084  165.3100 C.3     1  UNL1        0.1166
     25 C         141.4011  141.2510  166.5990 C.ar    1  UNL1       -0.0026
     26 C         140.1080  141.2662  167.3590 C.ar    1  UNL1       -0.0026
     27 C         139.9867  140.5088  168.6481 C.ar    1  UNL1       -0.0003
     28 C         141.1584  139.7362  169.1771 C.ar    1  UNL1       -0.0000
     29 C         142.4516  139.7209  168.4171 C.ar    1  UNL1       -0.0003
     30 C         142.5729  140.4783  167.1281 C.ar    1  UNL1       -0.0026
     31 N         138.7031  138.7564  162.3787 N.pl3   1  UNL1       -0.3179
     32 H         137.8474  139.2415  162.3370 H       1  UNL1        0.1482
     33 C         138.8831  137.6363  163.3600 C.3     1  UNL1        0.0881
     34 C         140.9051  137.8483  164.9776 C.3     1  UNL1        0.0017
     35 C         139.4275  137.9186  164.7289 C.3     1  UNL1        0.0196
     36 C         138.4943  138.2712  165.8491 C.3     1  UNL1        0.0017
@<TRIPOS>BOND
     1    34    35    1
     2    35    36    1
     3    35    33    1
     4    33    31    1
     5    31     1    1
     6     1     2   ar
     7     2     3   ar
     8     3     7    1
     9     7     8    1
    10     8     9    1
    11     9    10    1
    12    10    13    1
    13    13    14    1
    14    14    15    1
    15    15    16    1
    16    16    17    1
    17    17    18    1
    18    18    19    1
    19    10    11    1
    20    11    12    1
    21     3     4   ar
    22     4     5   ar
    23     5     6   ar
    24     6    20    1
    25    20    21    2
    26    20    22   am
    27    22    24    1
    28    24    25    1
    29    25    26   ar
    30    26    27   ar
    31    27    28   ar
    32    28    29   ar
    33    29    30   ar
    34     6     1   ar
    35    30    25   ar
    36    12     7    1
    37    19    14    1
    38    31    32    1
    39    22    23    1
