@<TRIPOS>MOLECULE
*****
 43 46 0 0 0
SMALL
GASTEIGER

@<TRIPOS>ATOM
      1 C         142.7310  139.2166  159.7262 C.3     1  UNL1        0.0781
      2 C         143.1767  140.5884  159.3145 C.3     1  UNL1        0.0372
      3 C         143.9831  141.4299  160.2588 C.3     1  UNL1        0.0738
      4 N         144.3437  140.8996  161.6147 N.3     1  UNL1       -0.2726
      5 C         143.8980  139.5278  162.0265 C.3     1  UNL1        0.0738
      6 C         143.0916  138.6863  161.0822 C.3     1  UNL1        0.0372
      7 N         141.9246  138.3751  158.7819 N.am    1  UNL1       -0.2808
      8 C         140.4560  138.6316  158.6162 C.2     1  UNL1        0.2300
      9 O         139.6496  137.7901  157.6719 O.2     1  UNL1       -0.2745
     10 C         142.9957  137.5092  156.5791 C.3     1  UNL1        0.0233
     11 C         142.5868  137.2772  158.0035 C.3     1  UNL1        0.0934
     12 C         139.7938  139.7295  159.3946 C.3     1  UNL1        0.1116
     13 C         139.4695  139.5299  160.8455 C.ar    1  UNL1       -0.0130
     14 C         139.0100  138.1881  161.3336 C.ar    1  UNL1       -0.0025
     15 C         138.6858  137.9885  162.7845 C.ar    1  UNL1        0.0180
     16 C         138.8211  139.1308  163.7472 C.ar    1  UNL1        0.1057
     17 C         139.2806  140.4726  163.2591 C.ar    1  UNL1        0.0180
     18 C         139.6049  140.6722  161.8083 C.ar    1  UNL1       -0.0025
     19 S         138.4968  138.9312  165.1982 S.O2    1  UNL1        0.0104
     20 C         138.1726  138.7316  166.6490 C.3     1  UNL1        0.1816
     21 O         138.1126  140.3767  165.3111 O.2     1  UNL1       -0.1686
     22 O         138.8811  137.4857  165.0852 O.2     1  UNL1       -0.1686
     23 C         145.1501  141.7411  162.5590 C.3     1  UNL1        0.0724
     24 C         144.5458  142.9698  163.1715 C.3     1  UNL1        0.0217
     25 C         143.1896  142.9008  163.8086 C.3     1  UNL1        0.0239
     26 C         142.0256  143.6007  163.1721 C.ar    1  UNL1       -0.0208
     27 C         140.7310  143.7333  163.9180 C.ar    1  UNL1        0.0072
     28 C         139.5669  144.4332  163.2815 C.ar    1  UNL1        0.0582
     29 CL        138.2723  144.5658  164.0275 Cl      1  UNL1       -0.0822
     30 C         139.6974  145.0004  161.8991 C.ar    1  UNL1        0.0228
     31 C         140.9920  144.8678  161.1531 C.ar    1  UNL1        0.0582
     32 CL        141.1225  145.4351  159.7706 Cl      1  UNL1       -0.0822
     33 C         142.1561  144.1680  161.7896 C.ar    1  UNL1        0.0072
     34 C         142.9974  142.1319  165.0821 C.3     1  UNL1        0.0070
     35 C         142.4420  140.7391  165.0408 C.3     1  UNL1        0.0195
     36 C         142.2498  139.9702  166.3143 C.3     1  UNL1        0.0954
     37 N         142.6129  140.5942  167.6291 N.3     1  UNL1       -0.1594
     38 C         143.1683  141.9869  167.6705 C.3     1  UNL1        0.0954
     39 C         143.3605  142.7559  166.3969 C.3     1  UNL1        0.0195
     40 S         142.4207  139.8253  168.9026 S.O2    1  UNL1        0.0457
     41 C         142.2285  139.0564  170.1762 C.3     1  UNL1        0.1960
     42 O         141.6098  140.9560  169.4629 O.2     1  UNL1       -0.1572
     43 O         143.2317  138.6946  168.3424 O.2     1  UNL1       -0.1572
@<TRIPOS>BOND
     1    10    11    1
     2    11     7    1
     3     7     8   am
     4     8     9    2
     5     8    12    1
     6    12    13    1
     7    13    14   ar
     8    14    15   ar
     9    15    16   ar
    10    16    19    1
    11    19    20    1
    12    19    21    2
    13    19    22    2
    14    16    17   ar
    15    17    18   ar
    16     7     1    1
    17     1     2    1
    18     2     3    1
    19     3     4    1
    20     4    23    1
    21    23    24    1
    22    25    24    1
    23    25    26    1
    24    26    27   ar
    25    27    28   ar
    26    28    29    1
    27    28    30   ar
    28    30    31   ar
    29    31    32    1
    30    31    33   ar
    31    25    34    1
    32    34    35    1
    33    35    36    1
    34    36    37    1
    35    37    40    1
    36    40    41    1
    37    40    42    2
    38    40    43    2
    39    37    38    1
    40    38    39    1
    41     4     5    1
    42     5     6    1
    43    18    13   ar
    44     6     1    1
    45    33    26   ar
    46    39    34    1
@<TRIPOS>MOLECULE
*****
 43 46 0 0 0
SMALL
GASTEIGER

@<TRIPOS>ATOM
      1 C         140.7383  138.3777  160.7152 C.3     1  UNL1        0.0781
      2 C         141.3378  137.6149  161.8592 C.3     1  UNL1        0.0372
      3 C         140.5843  137.4829  163.1495 C.3     1  UNL1        0.0738
      4 N         139.2313  138.1137  163.2958 N.3     1  UNL1       -0.2726
      5 C         138.6318  138.8766  162.1518 C.3     1  UNL1        0.0738
      6 C         139.3853  139.0086  160.8615 C.3     1  UNL1        0.0372
      7 N         141.4918  138.5097  159.4250 N.am    1  UNL1       -0.2808
      8 C         142.9785  138.7085  159.4416 C.2     1  UNL1        0.2300
      9 O         143.7320  138.8405  158.1513 O.2     1  UNL1       -0.2745
     10 C         140.3895  139.7069  157.3998 C.3     1  UNL1        0.0233
     11 C         140.7587  138.4429  158.1181 C.3     1  UNL1        0.0934
     12 C         143.7117  138.7753  160.7485 C.3     1  UNL1        0.1116
     13 C         143.7786  140.0685  161.5057 C.ar    1  UNL1       -0.0130
     14 C         144.0228  140.0592  162.9856 C.ar    1  UNL1       -0.0025
     15 C         144.0897  141.3524  163.7428 C.ar    1  UNL1        0.0180
     16 C         143.9125  142.6547  163.0200 C.ar    1  UNL1        0.1057
     17 C         143.6683  142.6640  161.5400 C.ar    1  UNL1        0.0180
     18 C         143.6014  141.3708  160.7829 C.ar    1  UNL1       -0.0025
     19 S         143.9794  143.9479  163.7772 S.O2    1  UNL1        0.0104
     20 C         144.0464  145.2410  164.5343 C.3     1  UNL1        0.1816
     21 O         144.3998  144.6591  162.5252 O.2     1  UNL1       -0.1686
     22 O         143.5591  143.2367  165.0291 O.2     1  UNL1       -0.1686
     23 C         138.4778  137.9817  164.5861 C.3     1  UNL1        0.0724
     24 C         138.3396  139.1644  165.4983 C.3     1  UNL1        0.0217
     25 C         139.4701  140.1404  165.6374 C.3     1  UNL1        0.0239
     26 C         140.5951  139.8546  166.5875 C.ar    1  UNL1       -0.0208
     27 C         141.8128  139.1210  166.1091 C.ar    1  UNL1        0.0072
     28 C         142.9378  138.8352  167.0593 C.ar    1  UNL1        0.0582
     29 CL        144.1555  138.1015  166.5809 Cl      1  UNL1       -0.0822
     30 C         142.8450  139.2830  168.4878 C.ar    1  UNL1        0.0228
     31 C         141.6273  140.0167  168.9663 C.ar    1  UNL1        0.0582
     32 CL        141.5345  140.4646  170.3949 Cl      1  UNL1       -0.0822
     33 C         140.5023  140.3025  168.0161 C.ar    1  UNL1        0.0072
     34 C         139.4756  141.4022  164.8264 C.3     1  UNL1        0.0070
     35 C         140.4170  141.5447  163.6672 C.3     1  UNL1        0.0195
     36 C         140.4225  142.8065  162.8563 C.3     1  UNL1        0.0954
     37 N         139.4868  143.9259  163.2044 N.3     1  UNL1       -0.1594
     38 C         138.5455  143.7836  164.3636 C.3     1  UNL1        0.0954
     39 C         138.5399  142.5217  165.1746 C.3     1  UNL1        0.0195
     40 S         139.4923  145.1878  162.3935 S.O2    1  UNL1        0.0457
     41 C         139.4979  146.4497  161.5824 C.3     1  UNL1        0.1960
     42 O         137.9961  145.1350  162.3012 O.2     1  UNL1       -0.1572
     43 O         140.9885  145.2405  162.4857 O.2     1  UNL1       -0.1572
@<TRIPOS>BOND
     1    10    11    1
     2    11     7    1
     3     7     8   am
     4     8     9    2
     5     8    12    1
     6    12    13    1
     7    13    14   ar
     8    14    15   ar
     9    15    16   ar
    10    16    19    1
    11    19    20    1
    12    19    21    2
    13    19    22    2
    14    16    17   ar
    15    17    18   ar
    16     7     1    1
    17     1     2    1
    18     2     3    1
    19     3     4    1
    20     4    23    1
    21    23    24    1
    22    25    24    1
    23    25    26    1
    24    26    27   ar
    25    27    28   ar
    26    28    29    1
    27    28    30   ar
    28    30    31   ar
    29    31    32    1
    30    31    33   ar
    31    25    34    1
    32    34    35    1
    33    35    36    1
    34    36    37    1
    35    37    40    1
    36    40    41    1
    37    40    42    2
    38    40    43    2
    39    37    38    1
    40    38    39    1
    41     4     5    1
    42     5     6    1
    43    18    13   ar
    44     6     1    1
    45    33    26   ar
    46    39    34    1
@<TRIPOS>MOLECULE
*****
 43 46 0 0 0
SMALL
GASTEIGER

@<TRIPOS>ATOM
      1 C         141.2522  139.7788  166.8468 C.3     1  UNL1        0.0781
      2 C         141.8811  139.0506  165.6961 C.3     1  UNL1        0.0372
      3 C         141.0253  138.5338  164.5778 C.3     1  UNL1        0.0738
      4 N         139.5407  138.7452  164.6102 N.3     1  UNL1       -0.2726
      5 C         138.9117  139.4735  165.7609 C.3     1  UNL1        0.0738
      6 C         139.7674  139.9903  166.8792 C.3     1  UNL1        0.0372
      7 N         142.1079  140.2956  167.9651 N.am    1  UNL1       -0.2808
      8 C         142.4626  141.7519  168.0267 C.2     1  UNL1        0.2300
      9 O         143.3183  142.2687  169.1450 O.2     1  UNL1       -0.2745
     10 C         141.8574  139.2086  170.3115 C.3     1  UNL1        0.0233
     11 C         142.6089  139.3563  169.0218 C.3     1  UNL1        0.0934
     12 C         141.9615  142.6912  166.9701 C.3     1  UNL1        0.1116
     13 C         142.5817  142.6832  165.6042 C.ar    1  UNL1       -0.0130
     14 C         144.0612  142.8773  165.4512 C.ar    1  UNL1       -0.0025
     15 C         144.6813  142.8694  164.0855 C.ar    1  UNL1        0.0180
     16 C         143.8220  142.6674  162.8727 C.ar    1  UNL1        0.1057
     17 C         142.3425  142.4733  163.0258 C.ar    1  UNL1        0.0180
     18 C         141.7224  142.4812  164.3915 C.ar    1  UNL1       -0.0025
     19 S         144.4422  142.6595  161.5069 S.O2    1  UNL1        0.0104
     20 C         145.0623  142.6515  160.1412 C.3     1  UNL1        0.1816
     21 O         145.4451  141.6440  161.9683 O.2     1  UNL1       -0.1686
     22 O         143.4392  143.6749  161.0455 O.2     1  UNL1       -0.1686
     23 C         138.6850  138.2284  163.4919 C.3     1  UNL1        0.0724
     24 C         138.0535  139.1868  162.5262 C.3     1  UNL1        0.0217
     25 C         138.9143  140.1008  161.7054 C.3     1  UNL1        0.0239
     26 C         138.9108  141.5765  161.9744 C.ar    1  UNL1       -0.0208
     27 C         139.5210  142.5212  160.9818 C.ar    1  UNL1        0.0072
     28 C         139.5175  143.9969  161.2508 C.ar    1  UNL1        0.0582
     29 CL        140.1277  144.9417  160.2583 Cl      1  UNL1       -0.0822
     30 C         138.9037  144.5279  162.5123 C.ar    1  UNL1        0.0228
     31 C         138.2935  143.5832  163.5048 C.ar    1  UNL1        0.0582
     32 CL        137.6797  144.1142  164.7664 Cl      1  UNL1       -0.0822
     33 C         138.2970  142.1075  163.2359 C.ar    1  UNL1        0.0072
     34 C         139.7787  139.5392  160.6158 C.3     1  UNL1        0.0070
     35 C         139.1955  139.2676  159.2607 C.3     1  UNL1        0.0195
     36 C         140.0598  138.7059  158.1710 C.3     1  UNL1        0.0954
     37 N         141.5074  138.4158  158.4364 N.3     1  UNL1       -0.1594
     38 C         142.0906  138.6874  159.7914 C.3     1  UNL1        0.0954
     39 C         141.2262  139.2491  160.8811 C.3     1  UNL1        0.0195
     40 S         142.3717  137.8542  157.3467 S.O2    1  UNL1        0.0457
     41 C         143.2361  137.2925  156.2570 C.3     1  UNL1        0.1960
     42 O         141.2360  136.9853  156.8937 O.2     1  UNL1       -0.1572
     43 O         143.5074  138.7231  157.7997 O.2     1  UNL1       -0.1572
@<TRIPOS>BOND
     1    10    11    1
     2    11     7    1
     3     7     8   am
     4     8     9    2
     5     8    12    1
     6    12    13    1
     7    13    14   ar
     8    14    15   ar
     9    15    16   ar
    10    16    19    1
    11    19    20    1
    12    19    21    2
    13    19    22    2
    14    16    17   ar
    15    17    18   ar
    16     7     1    1
    17     1     2    1
    18     2     3    1
    19     3     4    1
    20     4    23    1
    21    23    24    1
    22    25    24    1
    23    25    26    1
    24    26    27   ar
    25    27    28   ar
    26    28    29    1
    27    28    30   ar
    28    30    31   ar
    29    31    32    1
    30    31    33   ar
    31    25    34    1
    32    34    35    1
    33    35    36    1
    34    36    37    1
    35    37    40    1
    36    40    41    1
    37    40    42    2
    38    40    43    2
    39    37    38    1
    40    38    39    1
    41     4     5    1
    42     5     6    1
    43    18    13   ar
    44     6     1    1
    45    33    26   ar
    46    39    34    1
@<TRIPOS>MOLECULE
*****
 43 46 0 0 0
SMALL
GASTEIGER

@<TRIPOS>ATOM
      1 C         139.9374  141.4585  166.6087 C.3     1  UNL1        0.0781
      2 C         139.1698  140.8689  165.4628 C.3     1  UNL1        0.0372
      3 C         138.6155  141.7621  164.3928 C.3     1  UNL1        0.0738
      4 N         138.8286  143.2449  164.4687 N.3     1  UNL1       -0.2726
      5 C         139.5962  143.8346  165.6147 C.3     1  UNL1        0.0738
      6 C         140.1506  142.9414  166.6847 C.3     1  UNL1        0.0372
      7 N         140.4917  140.5653  167.6787 N.am    1  UNL1       -0.2808
      8 C         141.9454  140.1954  167.6682 C.2     1  UNL1        0.2300
      9 O         142.4998  139.3022  168.7382 O.2     1  UNL1       -0.2745
     10 C         139.2694  140.8995  169.9467 C.3     1  UNL1        0.0233
     11 C         139.5925  140.0420  168.7592 C.3     1  UNL1        0.0934
     12 C         142.8447  140.7187  166.5877 C.3     1  UNL1        0.1116
     13 C         142.8690  140.0524  165.2440 C.ar    1  UNL1       -0.0130
     14 C         142.0854  138.7937  165.0167 C.ar    1  UNL1       -0.0025
     15 C         142.1097  138.1274  163.6730 C.ar    1  UNL1        0.0180
     16 C         142.9177  138.7198  162.5567 C.ar    1  UNL1        0.1057
     17 C         143.7013  139.9785  162.7839 C.ar    1  UNL1        0.0180
     18 C         143.6769  140.6448  164.1276 C.ar    1  UNL1       -0.0025
     19 S         142.9420  138.0535  161.2129 S.O2    1  UNL1        0.0104
     20 C         142.9663  137.3873  159.8693 C.3     1  UNL1        0.1816
     21 O         144.2456  138.7273  160.9025 O.2     1  UNL1       -0.1686
     22 O         141.6383  137.3797  161.5234 O.2     1  UNL1       -0.1686
     23 C         138.2743  144.1381  163.3987 C.3     1  UNL1        0.0724
     24 C         139.2010  144.8191  162.4357 C.3     1  UNL1        0.0217
     25 C         140.1080  144.0030  161.5632 C.3     1  UNL1        0.0239
     26 C         141.5723  143.9169  161.8767 C.ar    1  UNL1       -0.0208
     27 C         142.5084  143.2530  160.9108 C.ar    1  UNL1        0.0072
     28 C         143.9728  143.1669  161.2243 C.ar    1  UNL1        0.0582
     29 CL        144.9088  142.5030  160.2584 Cl      1  UNL1       -0.0822
     30 C         144.5010  143.7446  162.5038 C.ar    1  UNL1        0.0228
     31 C         143.5650  144.4085  163.4697 C.ar    1  UNL1        0.0582
     32 CL        144.0933  144.9863  164.7493 Cl      1  UNL1       -0.0822
     33 C         142.1007  144.4947  163.1563 C.ar    1  UNL1        0.0072
     34 C         139.5508  143.2731  160.3772 C.3     1  UNL1        0.0070
     35 C         138.9067  141.9304  160.5577 C.3     1  UNL1        0.0195
     36 C         138.3495  141.2004  159.3717 C.3     1  UNL1        0.0954
     37 N         138.4363  141.8131  158.0052 N.3     1  UNL1       -0.1594
     38 C         139.0803  143.1557  157.8248 C.3     1  UNL1        0.0954
     39 C         139.6375  143.8857  159.0108 C.3     1  UNL1        0.0195
     40 S         137.8790  141.0831  156.8193 S.O2    1  UNL1        0.0457
     41 C         137.3217  140.3531  155.6332 C.3     1  UNL1        0.1960
     42 O         137.6200  142.3926  156.1350 O.2     1  UNL1       -0.1572
     43 O         138.1380  139.7737  157.5035 O.2     1  UNL1       -0.1572
@<TRIPOS>BOND
     1    10    11    1
     2    11     7    1
     3     7     8   am
     4     8     9    2
     5     8    12    1
     6    12    13    1
     7    13    14   ar
     8    14    15   ar
     9    15    16   ar
    10    16    19    1
    11    19    20    1
    12    19    21    2
    13    19    22    2
    14    16    17   ar
    15    17    18   ar
    16     7     1    1
    17     1     2    1
    18     2     3    1
    19     3     4    1
    20     4    23    1
    21    23    24    1
    22    25    24    1
    23    25    26    1
    24    26    27   ar
    25    27    28   ar
    26    28    29    1
    27    28    30   ar
    28    30    31   ar
    29    31    32    1
    30    31    33   ar
    31    25    34    1
    32    34    35    1
    33    35    36    1
    34    36    37    1
    35    37    40    1
    36    40    41    1
    37    40    42    2
    38    40    43    2
    39    37    38    1
    40    38    39    1
    41     4     5    1
    42     5     6    1
    43    18    13   ar
    44     6     1    1
    45    33    26   ar
    46    39    34    1
@<TRIPOS>MOLECULE
*****
 43 46 0 0 0
SMALL
GASTEIGER

@<TRIPOS>ATOM
      1 C         142.9280  141.5490  166.5648 C.3     1  UNL1        0.0781
      2 C         142.8140  140.1908  165.9386 C.3     1  UNL1        0.0372
      3 C         143.4333  139.9287  164.5978 C.3     1  UNL1        0.0738
      4 N         144.1665  141.0249  163.8831 N.3     1  UNL1       -0.2726
      5 C         144.2805  142.3832  164.5093 C.3     1  UNL1        0.0738
      6 C         143.6612  142.6453  165.8502 C.3     1  UNL1        0.0372
      7 N         142.3087  141.8111  167.9056 N.am    1  UNL1       -0.2808
      8 C         140.9911  142.5221  167.9971 C.2     1  UNL1        0.2300
      9 O         140.3718  142.7842  169.3380 O.2     1  UNL1       -0.2745
     10 C         143.9136  142.3060  169.8878 C.3     1  UNL1        0.0233
     11 C         143.0070  141.3622  169.1549 C.3     1  UNL1        0.0934
     12 C         140.2928  142.9711  166.7479 C.3     1  UNL1        0.1116
     13 C         139.8157  141.9579  165.7499 C.ar    1  UNL1       -0.0130
     14 C         139.1246  140.7117  166.2181 C.ar    1  UNL1       -0.0025
     15 C         138.6476  139.6986  165.2201 C.ar    1  UNL1        0.0180
     16 C         138.8618  139.9316  163.7539 C.ar    1  UNL1        0.1057
     17 C         139.5530  141.1778  163.2856 C.ar    1  UNL1        0.0180
     18 C         140.0299  142.1909  164.2836 C.ar    1  UNL1       -0.0025
     19 S         138.3848  138.9184  162.7559 S.O2    1  UNL1        0.0104
     20 C         137.9078  137.9052  161.7580 C.3     1  UNL1        0.1816
     21 O         139.0374  137.8273  163.5518 O.2     1  UNL1       -0.1686
     22 O         137.7321  140.0095  161.9600 O.2     1  UNL1       -0.1686
     23 C         144.7858  140.7628  162.5423 C.3     1  UNL1        0.0724
     24 C         144.5315  141.7035  161.4020 C.3     1  UNL1        0.0217
     25 C         143.3271  141.5146  160.5281 C.3     1  UNL1        0.0239
     26 C         142.1318  142.4052  160.6955 C.ar    1  UNL1       -0.0208
     27 C         142.1957  143.5788  161.6275 C.ar    1  UNL1        0.0072
     28 C         141.0003  144.4694  161.7950 C.ar    1  UNL1        0.0582
     29 CL        141.0641  145.6430  162.7270 Cl      1  UNL1       -0.0822
     30 C         139.7412  144.1865  161.0304 C.ar    1  UNL1        0.0228
     31 C         139.6774  143.0129  160.0984 C.ar    1  UNL1        0.0582
     32 CL        138.4182  142.7300  159.3338 Cl      1  UNL1       -0.0822
     33 C         140.8727  142.1223  159.9309 C.ar    1  UNL1        0.0072
     34 C         143.3179  140.4350  159.4868 C.3     1  UNL1        0.0070
     35 C         142.8066  139.0670  159.8291 C.3     1  UNL1        0.0195
     36 C         142.7974  137.9874  158.7878 C.3     1  UNL1        0.0954
     37 N         143.2996  138.2758  157.4041 N.3     1  UNL1       -0.1594
     38 C         143.8110  139.6437  157.0617 C.3     1  UNL1        0.0954
     39 C         143.8201  140.7234  158.1031 C.3     1  UNL1        0.0195
     40 S         143.2905  137.1962  156.3628 S.O2    1  UNL1        0.0457
     41 C         143.2813  136.1166  155.3214 C.3     1  UNL1        0.1960
     42 O         144.5605  137.7446  155.7831 O.2     1  UNL1       -0.1572
     43 O         142.0204  136.6478  156.9425 O.2     1  UNL1       -0.1572
@<TRIPOS>BOND
     1    10    11    1
     2    11     7    1
     3     7     8   am
     4     8     9    2
     5     8    12    1
     6    12    13    1
     7    13    14   ar
     8    14    15   ar
     9    15    16   ar
    10    16    19    1
    11    19    20    1
    12    19    21    2
    13    19    22    2
    14    16    17   ar
    15    17    18   ar
    16     7     1    1
    17     1     2    1
    18     2     3    1
    19     3     4    1
    20     4    23    1
    21    23    24    1
    22    25    24    1
    23    25    26    1
    24    26    27   ar
    25    27    28   ar
    26    28    29    1
    27    28    30   ar
    28    30    31   ar
    29    31    32    1
    30    31    33   ar
    31    25    34    1
    32    34    35    1
    33    35    36    1
    34    36    37    1
    35    37    40    1
    36    40    41    1
    37    40    42    2
    38    40    43    2
    39    37    38    1
    40    38    39    1
    41     4     5    1
    42     5     6    1
    43    18    13   ar
    44     6     1    1
    45    33    26   ar
    46    39    34    1
@<TRIPOS>MOLECULE
*****
 43 46 0 0 0
SMALL
GASTEIGER

@<TRIPOS>ATOM
      1 C         140.3372  138.7200  160.9243 C.3     1  UNL1        0.0781
      2 C         139.6905  140.0536  161.1548 C.3     1  UNL1        0.0372
      3 C         138.9502  140.3174  162.4324 C.3     1  UNL1        0.0738
      4 N         138.8567  139.2476  163.4796 N.3     1  UNL1       -0.2726
      5 C         139.5035  137.9139  163.2492 C.3     1  UNL1        0.0738
      6 C         140.2438  137.6501  161.9715 C.3     1  UNL1        0.0372
      7 N         141.0775  138.4563  159.6466 N.am    1  UNL1       -0.2808
      8 C         142.5098  138.0125  159.6876 C.2     1  UNL1        0.2300
      9 O         143.2501  137.7487  158.4100 O.2     1  UNL1       -0.2745
     10 C         140.6078  139.8859  157.5288 C.3     1  UNL1        0.0233
     11 C         140.3855  138.6362  158.3280 C.3     1  UNL1        0.0934
     12 C         143.2018  137.8326  161.0062 C.3     1  UNL1        0.1116
     13 C         143.5056  139.0259  161.8628 C.ar    1  UNL1       -0.0130
     14 C         143.8695  140.3338  161.2251 C.ar    1  UNL1       -0.0025
     15 C         144.1733  141.5271  162.0817 C.ar    1  UNL1        0.0180
     16 C         144.1132  141.4124  163.5761 C.ar    1  UNL1        0.1057
     17 C         143.7493  140.1044  164.2139 C.ar    1  UNL1        0.0180
     18 C         143.4455  138.9112  163.3572 C.ar    1  UNL1       -0.0025
     19 S         144.4169  142.6057  164.4327 S.O2    1  UNL1        0.0104
     20 C         144.7207  143.7990  165.2893 C.3     1  UNL1        0.1816
     21 O         144.7916  143.3885  163.2093 O.2     1  UNL1       -0.1686
     22 O         144.0423  141.8229  165.6561 O.2     1  UNL1       -0.1686
     23 C         138.1164  139.5114  164.7573 C.3     1  UNL1        0.0724
     24 C         138.8709  139.6501  166.0463 C.3     1  UNL1        0.0217
     25 C         139.6450  140.9030  166.3311 C.3     1  UNL1        0.0239
     26 C         140.4332  141.0251  167.6014 C.ar    1  UNL1       -0.0208
     27 C         140.5508  142.3545  168.2862 C.ar    1  UNL1        0.0072
     28 C         141.3390  142.4766  169.5566 C.ar    1  UNL1        0.0582
     29 CL        141.4566  143.8060  170.2414 Cl      1  UNL1       -0.0822
     30 C         142.0096  141.2694  170.1422 C.ar    1  UNL1        0.0228
     31 C         141.8919  139.9400  169.4574 C.ar    1  UNL1        0.0582
     32 CL        142.5625  138.7328  170.0431 Cl      1  UNL1       -0.0822
     33 C         141.1038  139.8179  168.1871 C.ar    1  UNL1        0.0072
     34 C         139.6310  142.0336  165.3455 C.3     1  UNL1        0.0070
     35 C         138.3859  142.8487  165.1568 C.3     1  UNL1        0.0195
     36 C         138.3719  143.9794  164.1713 C.3     1  UNL1        0.0954
     37 N         139.6029  144.2950  163.3744 N.3     1  UNL1       -0.1594
     38 C         140.8479  143.4800  163.5631 C.3     1  UNL1        0.0954
     39 C         140.8620  142.3493  164.5487 C.3     1  UNL1        0.0195
     40 S         139.5889  145.4257  162.3889 S.O2    1  UNL1        0.0457
     41 C         139.5749  146.5564  161.4033 C.3     1  UNL1        0.1960
     42 O         138.1026  145.2827  162.2459 O.2     1  UNL1       -0.1572
     43 O         141.0751  145.5687  162.5318 O.2     1  UNL1       -0.1572
@<TRIPOS>BOND
     1    10    11    1
     2    11     7    1
     3     7     8   am
     4     8     9    2
     5     8    12    1
     6    12    13    1
     7    13    14   ar
     8    14    15   ar
     9    15    16   ar
    10    16    19    1
    11    19    20    1
    12    19    21    2
    13    19    22    2
    14    16    17   ar
    15    17    18   ar
    16     7     1    1
    17     1     2    1
    18     2     3    1
    19     3     4    1
    20     4    23    1
    21    23    24    1
    22    25    24    1
    23    25    26    1
    24    26    27   ar
    25    27    28   ar
    26    28    29    1
    27    28    30   ar
    28    30    31   ar
    29    31    32    1
    30    31    33   ar
    31    25    34    1
    32    34    35    1
    33    35    36    1
    34    36    37    1
    35    37    40    1
    36    40    41    1
    37    40    42    2
    38    40    43    2
    39    37    38    1
    40    38    39    1
    41     4     5    1
    42     5     6    1
    43    18    13   ar
    44     6     1    1
    45    33    26   ar
    46    39    34    1
@<TRIPOS>MOLECULE
*****
 43 46 0 0 0
SMALL
GASTEIGER

@<TRIPOS>ATOM
      1 C         142.6134  140.3907  166.7516 C.3     1  UNL1        0.0781
      2 C         142.5757  138.9183  166.4681 C.3     1  UNL1        0.0372
      3 C         143.1697  138.3834  165.1988 C.3     1  UNL1        0.0738
      4 N         143.8015  139.3210  164.2131 N.3     1  UNL1       -0.2726
      5 C         143.8393  140.7936  164.4966 C.3     1  UNL1        0.0738
      6 C         143.2452  141.3284  165.7659 C.3     1  UNL1        0.0372
      7 N         142.0194  140.9255  168.0209 N.am    1  UNL1       -0.2808
      8 C         140.5542  141.2401  168.0890 C.2     1  UNL1        0.2300
      9 O         139.9602  141.7749  169.3583 O.2     1  UNL1       -0.2745
     10 C         143.4639  142.5050  169.4934 C.3     1  UNL1        0.0233
     11 C         142.8904  141.1458  169.2220 C.3     1  UNL1        0.0934
     12 C         139.6833  141.0198  166.8878 C.3     1  UNL1        0.1116
     13 C         139.7416  141.9759  165.7335 C.ar    1  UNL1       -0.0130
     14 C         139.7958  141.4532  164.3286 C.ar    1  UNL1       -0.0025
     15 C         139.8542  142.4093  163.1744 C.ar    1  UNL1        0.0180
     16 C         139.8584  143.8882  163.4250 C.ar    1  UNL1        0.1057
     17 C         139.8041  144.4110  164.8299 C.ar    1  UNL1        0.0180
     18 C         139.7458  143.4548  165.9841 C.ar    1  UNL1       -0.0025
     19 S         139.9167  144.8444  162.2707 S.O2    1  UNL1        0.0104
     20 C         139.9751  145.8005  161.1164 C.3     1  UNL1        0.1816
     21 O         138.7183  144.1805  161.6602 O.2     1  UNL1       -0.1686
     22 O         141.1152  145.5083  162.8812 O.2     1  UNL1       -0.1686
     23 C         144.3956  138.7862  162.9438 C.3     1  UNL1        0.0724
     24 C         143.5358  138.0332  161.9724 C.3     1  UNL1        0.0217
     25 C         142.5023  138.7610  161.1647 C.3     1  UNL1        0.0239
     26 C         141.0620  138.7242  161.5817 C.ar    1  UNL1       -0.0208
     27 C         140.6743  138.0902  162.8847 C.ar    1  UNL1        0.0072
     28 C         139.2338  138.0534  163.3016 C.ar    1  UNL1        0.0582
     29 CL        138.8462  137.4194  164.6046 Cl      1  UNL1       -0.0822
     30 C         138.1811  138.6506  162.4156 C.ar    1  UNL1        0.0228
     31 C         138.5688  139.2846  161.1126 C.ar    1  UNL1        0.0582
     32 CL        137.5160  139.8818  160.2266 Cl      1  UNL1       -0.0822
     33 C         140.0092  139.3214  160.6957 C.ar    1  UNL1        0.0072
     34 C         142.9093  139.5256  159.9401 C.3     1  UNL1        0.0070
     35 C         143.2832  140.9741  160.0501 C.3     1  UNL1        0.0195
     36 C         143.6901  141.7388  158.8255 C.3     1  UNL1        0.0954
     37 N         143.7232  141.0549  157.4909 N.3     1  UNL1       -0.1594
     38 C         143.3493  139.6065  157.3808 C.3     1  UNL1        0.0954
     39 C         142.9424  138.8418  158.6055 C.3     1  UNL1        0.0195
     40 S         144.1301  141.8195  156.2663 S.O2    1  UNL1        0.0457
     41 C         144.5370  142.5842  155.0416 C.3     1  UNL1        0.1960
     42 O         145.4975  141.2072  156.3383 O.2     1  UNL1       -0.1572
     43 O         142.7627  142.4318  156.1942 O.2     1  UNL1       -0.1572
@<TRIPOS>BOND
     1    10    11    1
     2    11     7    1
     3     7     8   am
     4     8     9    2
     5     8    12    1
     6    12    13    1
     7    13    14   ar
     8    14    15   ar
     9    15    16   ar
    10    16    19    1
    11    19    20    1
    12    19    21    2
    13    19    22    2
    14    16    17   ar
    15    17    18   ar
    16     7     1    1
    17     1     2    1
    18     2     3    1
    19     3     4    1
    20     4    23    1
    21    23    24    1
    22    25    24    1
    23    25    26    1
    24    26    27   ar
    25    27    28   ar
    26    28    29    1
    27    28    30   ar
    28    30    31   ar
    29    31    32    1
    30    31    33   ar
    31    25    34    1
    32    34    35    1
    33    35    36    1
    34    36    37    1
    35    37    40    1
    36    40    41    1
    37    40    42    2
    38    40    43    2
    39    37    38    1
    40    38    39    1
    41     4     5    1
    42     5     6    1
    43    18    13   ar
    44     6     1    1
    45    33    26   ar
    46    39    34    1
@<TRIPOS>MOLECULE
*****
 43 46 0 0 0
SMALL
GASTEIGER

@<TRIPOS>ATOM
      1 C         144.0726  140.4904  161.2881 C.3     1  UNL1        0.0781
      2 C         143.4327  139.1669  161.5861 C.3     1  UNL1        0.0372
      3 C         143.5746  138.5550  162.9482 C.3     1  UNL1        0.0738
      4 N         144.3564  139.2665  164.0124 N.3     1  UNL1       -0.2726
      5 C         144.9963  140.5901  163.7144 C.3     1  UNL1        0.0738
      6 C         144.8545  141.2020  162.3523 C.3     1  UNL1        0.0372
      7 N         143.9308  141.1024  159.9260 N.am    1  UNL1       -0.2808
      8 C         143.7465  142.5844  159.7851 C.2     1  UNL1        0.2300
      9 O         143.6046  143.1963  158.4230 O.2     1  UNL1       -0.2745
     10 C         142.6975  139.8292  158.0266 C.3     1  UNL1        0.0233
     11 C         143.9732  140.2324  158.7048 C.3     1  UNL1        0.0934
     12 C         143.7040  143.4543  161.0063 C.3     1  UNL1        0.1116
     13 C         142.4153  143.6386  161.7515 C.ar    1  UNL1       -0.0130
     14 C         142.4350  143.9394  163.2209 C.ar    1  UNL1       -0.0025
     15 C         141.1463  144.1236  163.9660 C.ar    1  UNL1        0.0180
     16 C         139.8379  144.0071  163.2417 C.ar    1  UNL1        0.1057
     17 C         139.8182  143.7064  161.7724 C.ar    1  UNL1        0.0180
     18 C         141.1069  143.5221  161.0272 C.ar    1  UNL1       -0.0025
     19 S         138.5492  144.1914  163.9870 S.O2    1  UNL1        0.0104
     20 C         137.2605  144.3757  164.7322 C.3     1  UNL1        0.1816
     21 O         139.1919  143.6543  165.2313 O.2     1  UNL1       -0.1686
     22 O         137.9064  144.7285  162.7427 O.2     1  UNL1       -0.1686
     23 C         144.4982  138.6546  165.3745 C.3     1  UNL1        0.0724
     24 C         143.2801  138.2043  166.1250 C.3     1  UNL1        0.0217
     25 C         142.0869  139.1074  166.2291 C.3     1  UNL1        0.0239
     26 C         141.8750  139.9307  167.4649 C.ar    1  UNL1       -0.0208
     27 C         143.0018  140.7478  168.0241 C.ar    1  UNL1        0.0072
     28 C         142.7898  141.5711  169.2600 C.ar    1  UNL1        0.0582
     29 CL        143.9166  142.3882  169.8192 Cl      1  UNL1       -0.0822
     30 C         141.4511  141.5773  169.9366 C.ar    1  UNL1        0.0228
     31 C         140.3243  140.7602  169.3774 C.ar    1  UNL1        0.0582
     32 CL        138.9856  140.7664  170.0540 Cl      1  UNL1       -0.0822
     33 C         140.5362  139.9369  168.1416 C.ar    1  UNL1        0.0072
     34 C         141.1057  139.1872  165.0974 C.3     1  UNL1        0.0070
     35 C         141.0430  140.4196  164.2446 C.3     1  UNL1        0.0195
     36 C         140.0617  140.4994  163.1129 C.3     1  UNL1        0.0954
     37 N         139.1432  139.3468  162.8340 N.3     1  UNL1       -0.1594
     38 C         139.2059  138.1144  163.6867 C.3     1  UNL1        0.0954
     39 C         140.1871  138.0346  164.8185 C.3     1  UNL1        0.0195
     40 S         138.1620  139.4266  161.7023 S.O2    1  UNL1        0.0457
     41 C         137.1807  139.5064  160.5705 C.3     1  UNL1        0.1960
     42 O         137.5357  140.6361  162.3306 O.2     1  UNL1       -0.1572
     43 O         138.7882  138.2171  161.0740 O.2     1  UNL1       -0.1572
@<TRIPOS>BOND
     1    10    11    1
     2    11     7    1
     3     7     8   am
     4     8     9    2
     5     8    12    1
     6    12    13    1
     7    13    14   ar
     8    14    15   ar
     9    15    16   ar
    10    16    19    1
    11    19    20    1
    12    19    21    2
    13    19    22    2
    14    16    17   ar
    15    17    18   ar
    16     7     1    1
    17     1     2    1
    18     2     3    1
    19     3     4    1
    20     4    23    1
    21    23    24    1
    22    25    24    1
    23    25    26    1
    24    26    27   ar
    25    27    28   ar
    26    28    29    1
    27    28    30   ar
    28    30    31   ar
    29    31    32    1
    30    31    33   ar
    31    25    34    1
    32    34    35    1
    33    35    36    1
    34    36    37    1
    35    37    40    1
    36    40    41    1
    37    40    42    2
    38    40    43    2
    39    37    38    1
    40    38    39    1
    41     4     5    1
    42     5     6    1
    43    18    13   ar
    44     6     1    1
    45    33    26   ar
    46    39    34    1
@<TRIPOS>MOLECULE
*****
 43 46 0 0 0
SMALL
GASTEIGER

@<TRIPOS>ATOM
      1 C         142.1901  139.7400  166.1216 C.3     1  UNL1        0.0781
      2 C         141.9445  138.4487  165.3990 C.3     1  UNL1        0.0372
      3 C         142.5509  138.2192  164.0464 C.3     1  UNL1        0.0738
      4 N         143.4029  139.2809  163.4164 N.3     1  UNL1       -0.2726
      5 C         143.6485  140.5722  164.1390 C.3     1  UNL1        0.0738
      6 C         143.0421  140.8018  165.4916 C.3     1  UNL1        0.0372
      7 N         141.5837  139.9696  167.4742 N.am    1  UNL1       -0.2808
      8 C         140.1188  140.2675  167.5987 C.2     1  UNL1        0.2300
      9 O         139.5124  140.4971  168.9513 O.2     1  UNL1       -0.2745
     10 C         142.9987  141.1599  169.2992 C.3     1  UNL1        0.0233
     11 C         142.4421  139.9013  168.7024 C.3     1  UNL1        0.0934
     12 C         139.2604  140.3358  166.3705 C.3     1  UNL1        0.1116
     13 C         139.3520  141.5215  165.4563 C.ar    1  UNL1       -0.0130
     14 C         139.8736  142.8291  165.9740 C.ar    1  UNL1       -0.0025
     15 C         139.9652  144.0148  165.0599 C.ar    1  UNL1        0.0180
     16 C         139.5353  143.8929  163.6280 C.ar    1  UNL1        0.1057
     17 C         139.0137  142.5853  163.1103 C.ar    1  UNL1        0.0180
     18 C         138.9220  141.3996  164.0245 C.ar    1  UNL1       -0.0025
     19 S         139.6269  145.0786  162.7138 S.O2    1  UNL1        0.0104
     20 C         139.7186  146.2643  161.7997 C.3     1  UNL1        0.1816
     21 O         141.0773  145.2353  163.0625 O.2     1  UNL1       -0.1686
     22 O         138.1765  144.9220  162.3651 O.2     1  UNL1       -0.1686
     23 C         144.0093  139.0513  162.0638 C.3     1  UNL1        0.0724
     24 C         143.1614  138.5342  160.9397 C.3     1  UNL1        0.0217
     25 C         142.4894  139.4947  160.0039 C.3     1  UNL1        0.0239
     26 C         141.0178  139.7574  160.1281 C.ar    1  UNL1       -0.0208
     27 C         140.4135  140.9644  159.4739 C.ar    1  UNL1        0.0072
     28 C         138.9419  141.2270  159.5981 C.ar    1  UNL1        0.0582
     29 CL        138.3376  142.4340  158.9439 Cl      1  UNL1       -0.0822
     30 C         138.0746  140.2827  160.3765 C.ar    1  UNL1        0.0228
     31 C         138.6789  139.0757  161.0308 C.ar    1  UNL1        0.0582
     32 CL        137.8115  138.1314  161.8093 Cl      1  UNL1       -0.0822
     33 C         140.1504  138.8130  160.9066 C.ar    1  UNL1        0.0072
     34 C         143.2889  140.1926  158.9439 C.3     1  UNL1        0.0070
     35 C         144.0015  141.4734  159.2633 C.3     1  UNL1        0.0195
     36 C         144.8010  142.1713  158.2033 C.3     1  UNL1        0.0954
     37 N         144.8880  141.5885  156.8239 N.3     1  UNL1       -0.1594
     38 C         144.1755  140.3078  156.5045 C.3     1  UNL1        0.0954
     39 C         143.3759  139.6098  157.5645 C.3     1  UNL1        0.0195
     40 S         145.6876  142.2864  155.7639 S.O2    1  UNL1        0.0457
     41 C         146.4871  142.9843  154.7038 C.3     1  UNL1        0.1960
     42 O         146.8580  142.3651  156.6986 O.2     1  UNL1       -0.1572
     43 O         144.5171  142.2076  154.8292 O.2     1  UNL1       -0.1572
@<TRIPOS>BOND
     1    10    11    1
     2    11     7    1
     3     7     8   am
     4     8     9    2
     5     8    12    1
     6    12    13    1
     7    13    14   ar
     8    14    15   ar
     9    15    16   ar
    10    16    19    1
    11    19    20    1
    12    19    21    2
    13    19    22    2
    14    16    17   ar
    15    17    18   ar
    16     7     1    1
    17     1     2    1
    18     2     3    1
    19     3     4    1
    20     4    23    1
    21    23    24    1
    22    25    24    1
    23    25    26    1
    24    26    27   ar
    25    27    28   ar
    26    28    29    1
    27    28    30   ar
    28    30    31   ar
    29    31    32    1
    30    31    33   ar
    31    25    34    1
    32    34    35    1
    33    35    36    1
    34    36    37    1
    35    37    40    1
    36    40    41    1
    37    40    42    2
    38    40    43    2
    39    37    38    1
    40    38    39    1
    41     4     5    1
    42     5     6    1
    43    18    13   ar
    44     6     1    1
    45    33    26   ar
    46    39    34    1
