@<TRIPOS>MOLECULE
*****
 26 29 0 0 0
SMALL
GASTEIGER

@<TRIPOS>ATOM
      1 N         139.2219  139.3438  165.6788 N.ar    1  UNL1       -0.2155
      2 N         140.1606  140.3763  165.1285 N.ar    1  UNL1       -0.1693
      3 C         140.7463  141.4171  166.0360 C.ar    1  UNL1        0.1007
      4 C         140.3933  141.4255  167.4939 C.ar    1  UNL1        0.1014
      5 N         140.9790  142.4663  168.4014 N.ar    1  UNL1       -0.2424
      6 C         140.6260  142.4747  169.8592 C.ar    1  UNL1        0.0989
      7 C         139.6873  141.4422  170.4095 C.ar    1  UNL1        0.0208
      8 C         139.1016  140.4014  169.5020 C.ar    1  UNL1        0.0079
      9 C         139.4546  140.3931  168.0442 C.ar    1  UNL1        0.0764
     10 C         138.8689  139.3522  167.1366 C.ar    1  UNL1        0.2778
     11 O         137.9302  138.3197  167.6869 O.2     1  UNL1       -0.2655
     12 C         138.6362  138.3030  164.7712 C.3     1  UNL1        0.1465
     13 C         141.3251  137.2900  163.2242 C.3     1  UNL1        0.0897
     14 N         140.1180  137.9069  162.5821 N.3     1  UNL1       -0.2709
     15 C         139.9350  138.1666  161.1161 C.3     1  UNL1        0.0722
     16 C         138.5858  138.7927  160.9212 C.3     1  UNL1        0.0188
     17 C         137.9351  138.9200  162.2666 C.3     1  UNL1        0.0194
     18 C         138.8821  138.3726  163.2932 C.3     1  UNL1        0.0822
     19 C         141.6850  142.4496  165.4857 C.3     1  UNL1        0.0754
     20 C         141.1862  143.4710  164.5070 C.ar    1  UNL1       -0.0160
     21 C         139.7778  143.9780  164.6044 C.ar    1  UNL1       -0.0030
     22 C         139.2791  144.9995  163.6257 C.ar    1  UNL1        0.0111
     23 C         140.1887  145.5139  162.5496 C.ar    1  UNL1        0.0577
     24 CL        139.6899  146.5354  161.5709 Cl      1  UNL1       -0.0822
     25 C         141.5970  145.0070  162.4522 C.ar    1  UNL1        0.0111
     26 C         142.0958  143.9855  163.4309 C.ar    1  UNL1       -0.0030
@<TRIPOS>BOND
     1    13    14    1
     2    14    15    1
     3    15    16    1
     4    16    17    1
     5    17    18    1
     6    18    12    1
     7    12     1    1
     8     1     2   ar
     9     2     3   ar
    10     3    19    1
    11    19    20    1
    12    20    21   ar
    13    21    22   ar
    14    22    23   ar
    15    23    24    1
    16    23    25   ar
    17    25    26   ar
    18     3     4   ar
    19     4     5   ar
    20     5     6   ar
    21     6     7   ar
    22     7     8   ar
    23     8     9   ar
    24     9    10   ar
    25    10    11    2
    26    18    14    1
    27    10     1   ar
    28    26    20   ar
    29     9     4   ar
@<TRIPOS>MOLECULE
*****
 26 29 0 0 0
SMALL
GASTEIGER

@<TRIPOS>ATOM
      1 N         142.6363  141.1884  166.0254 N.ar    1  UNL1       -0.2155
      2 N         141.6016  140.2419  165.4928 N.ar    1  UNL1       -0.1693
      3 C         140.4640  139.8048  166.3673 C.ar    1  UNL1        0.1007
      4 C         140.3610  140.3143  167.7744 C.ar    1  UNL1        0.1014
      5 N         139.2234  139.8772  168.6489 N.ar    1  UNL1       -0.2424
      6 C         139.1205  140.3867  170.0560 C.ar    1  UNL1        0.0989
      7 C         140.1551  141.3332  170.5885 C.ar    1  UNL1        0.0208
      8 C         141.2927  141.7703  169.7140 C.ar    1  UNL1        0.0079
      9 C         141.3957  141.2608  168.3070 C.ar    1  UNL1        0.0764
     10 C         142.5333  141.6979  167.4324 C.ar    1  UNL1        0.2778
     11 O         143.5680  142.6444  167.9649 O.2     1  UNL1       -0.2655
     12 C         143.7739  141.6255  165.1508 C.3     1  UNL1        0.1465
     13 C         142.4354  141.5854  162.1749 C.3     1  UNL1        0.0897
     14 N         142.9947  142.7889  162.8739 N.3     1  UNL1       -0.2709
     15 C         143.0370  144.1853  162.3278 C.3     1  UNL1        0.0722
     16 C         143.6785  145.0668  163.3582 C.3     1  UNL1        0.0188
     17 C         144.0326  144.2151  164.5411 C.3     1  UNL1        0.0194
     18 C         143.6100  142.8073  164.2418 C.3     1  UNL1        0.0822
     19 C         139.4294  138.8583  165.8348 C.3     1  UNL1        0.0754
     20 C         138.8670  139.0587  164.4588 C.ar    1  UNL1       -0.0160
     21 C         138.9476  137.9539  163.4473 C.ar    1  UNL1       -0.0030
     22 C         138.3852  138.1543  162.0713 C.ar    1  UNL1        0.0111
     23 C         137.7421  139.4595  161.7066 C.ar    1  UNL1        0.0577
     24 CL        137.1797  139.6599  160.3306 Cl      1  UNL1       -0.0822
     25 C         137.6614  140.5642  162.7180 C.ar    1  UNL1        0.0111
     26 C         138.2239  140.3639  164.0941 C.ar    1  UNL1       -0.0030
@<TRIPOS>BOND
     1    13    14    1
     2    14    15    1
     3    15    16    1
     4    16    17    1
     5    17    18    1
     6    18    12    1
     7    12     1    1
     8     1     2   ar
     9     2     3   ar
    10     3    19    1
    11    19    20    1
    12    20    21   ar
    13    21    22   ar
    14    22    23   ar
    15    23    24    1
    16    23    25   ar
    17    25    26   ar
    18     3     4   ar
    19     4     5   ar
    20     5     6   ar
    21     6     7   ar
    22     7     8   ar
    23     8     9   ar
    24     9    10   ar
    25    10    11    2
    26    18    14    1
    27    10     1   ar
    28    26    20   ar
    29     9     4   ar
@<TRIPOS>MOLECULE
*****
 26 29 0 0 0
SMALL
GASTEIGER

@<TRIPOS>ATOM
      1 N         140.4824  140.2611  166.3031 N.ar    1  UNL1       -0.2155
      2 N         141.6616  141.0408  165.8015 N.ar    1  UNL1       -0.1693
      3 C         142.4792  141.8607  166.7550 C.ar    1  UNL1        0.1007
      4 C         142.1176  141.9010  168.2103 C.ar    1  UNL1        0.1014
      5 N         142.9352  142.7209  169.1638 N.ar    1  UNL1       -0.2424
      6 C         142.5736  142.7611  170.6190 C.ar    1  UNL1        0.0989
      7 C         141.3944  141.9814  171.1206 C.ar    1  UNL1        0.0208
      8 C         140.5769  141.1615  170.1671 C.ar    1  UNL1        0.0079
      9 C         140.9384  141.1213  168.7119 C.ar    1  UNL1        0.0764
     10 C         140.1208  140.3014  167.7583 C.ar    1  UNL1        0.2778
     11 O         138.9417  139.5217  168.2600 O.2     1  UNL1       -0.2655
     12 C         139.6648  139.4412  165.3495 C.3     1  UNL1        0.1465
     13 C         138.7383  138.1956  162.4791 C.3     1  UNL1        0.0897
     14 N         138.3671  139.5464  163.0151 N.3     1  UNL1       -0.2709
     15 C         137.5048  140.5619  162.3258 C.3     1  UNL1        0.0722
     16 C         137.3977  141.7622  163.2192 C.3     1  UNL1        0.0188
     17 C         138.1938  141.4884  164.4606 C.3     1  UNL1        0.0194
     18 C         138.7929  140.1190  164.3345 C.3     1  UNL1        0.0822
     19 C         143.6583  142.6404  166.2533 C.3     1  UNL1        0.0754
     20 C         143.9870  142.6447  164.7898 C.ar    1  UNL1       -0.0160
     21 C         144.9379  141.6277  164.2317 C.ar    1  UNL1       -0.0030
     22 C         145.2665  141.6319  162.7681 C.ar    1  UNL1        0.0111
     23 C         144.6442  142.6532  161.8627 C.ar    1  UNL1        0.0577
     24 CL        144.9729  142.6574  160.3992 Cl      1  UNL1       -0.0822
     25 C         143.6933  143.6701  162.4208 C.ar    1  UNL1        0.0111
     26 C         143.3647  143.6659  163.8844 C.ar    1  UNL1       -0.0030
@<TRIPOS>BOND
     1    13    14    1
     2    14    15    1
     3    15    16    1
     4    16    17    1
     5    17    18    1
     6    18    12    1
     7    12     1    1
     8     1     2   ar
     9     2     3   ar
    10     3    19    1
    11    19    20    1
    12    20    21   ar
    13    21    22   ar
    14    22    23   ar
    15    23    24    1
    16    23    25   ar
    17    25    26   ar
    18     3     4   ar
    19     4     5   ar
    20     5     6   ar
    21     6     7   ar
    22     7     8   ar
    23     8     9   ar
    24     9    10   ar
    25    10    11    2
    26    18    14    1
    27    10     1   ar
    28    26    20   ar
    29     9     4   ar
@<TRIPOS>MOLECULE
*****
 26 29 0 0 0
SMALL
GASTEIGER

@<TRIPOS>ATOM
      1 N         141.3124  139.6294  163.2636 N.ar    1  UNL1       -0.2155
      2 N         141.1198  140.8938  164.0473 N.ar    1  UNL1       -0.1693
      3 C         140.1582  140.9237  165.1981 C.ar    1  UNL1        0.1007
      4 C         139.3892  139.6892  165.5653 C.ar    1  UNL1        0.1014
      5 N         138.4276  139.7192  166.7161 N.ar    1  UNL1       -0.2424
      6 C         137.6587  138.4847  167.0832 C.ar    1  UNL1        0.0989
      7 C         137.8513  137.2203  166.2994 C.ar    1  UNL1        0.0208
      8 C         138.8128  137.1904  165.1486 C.ar    1  UNL1        0.0079
      9 C         139.5818  138.4248  164.7815 C.ar    1  UNL1        0.0764
     10 C         140.5434  138.3950  163.6306 C.ar    1  UNL1        0.2778
     11 O         140.7360  137.1306  162.8469 O.2     1  UNL1       -0.2655
     12 C         142.2740  139.5995  162.1127 C.3     1  UNL1        0.1465
     13 C         144.8480  139.7289  164.1145 C.3     1  UNL1        0.0897
     14 N         144.5773  140.6542  162.9654 N.3     1  UNL1       -0.2709
     15 C         145.4423  141.8015  162.5347 C.3     1  UNL1        0.0722
     16 C         144.7937  142.4512  161.3484 C.3     1  UNL1        0.0188
     17 C         143.5279  141.7054  161.0459 C.3     1  UNL1        0.0194
     18 C         143.3942  140.5948  162.0453 C.3     1  UNL1        0.0822
     19 C         139.9656  142.1881  165.9819 C.3     1  UNL1        0.0754
     20 C         140.7928  142.4447  167.2066 C.ar    1  UNL1       -0.0160
     21 C         140.1744  143.1008  168.4054 C.ar    1  UNL1       -0.0030
     22 C         141.0016  143.3575  169.6301 C.ar    1  UNL1        0.0111
     23 C         142.4472  142.9580  169.6560 C.ar    1  UNL1        0.0577
     24 CL        143.2744  143.2147  170.8806 Cl      1  UNL1       -0.0822
     25 C         143.0656  142.3020  168.4572 C.ar    1  UNL1        0.0111
     26 C         142.2384  142.0453  167.2325 C.ar    1  UNL1       -0.0030
@<TRIPOS>BOND
     1    13    14    1
     2    14    15    1
     3    15    16    1
     4    16    17    1
     5    17    18    1
     6    18    12    1
     7    12     1    1
     8     1     2   ar
     9     2     3   ar
    10     3    19    1
    11    19    20    1
    12    20    21   ar
    13    21    22   ar
    14    22    23   ar
    15    23    24    1
    16    23    25   ar
    17    25    26   ar
    18     3     4   ar
    19     4     5   ar
    20     5     6   ar
    21     6     7   ar
    22     7     8   ar
    23     8     9   ar
    24     9    10   ar
    25    10    11    2
    26    18    14    1
    27    10     1   ar
    28    26    20   ar
    29     9     4   ar
@<TRIPOS>MOLECULE
*****
 26 29 0 0 0
SMALL
GASTEIGER

@<TRIPOS>ATOM
      1 N         139.5448  140.1810  166.9509 N.ar    1  UNL1       -0.2155
      2 N         140.5142  140.9104  166.0687 N.ar    1  UNL1       -0.1693
      3 C         141.5941  141.7546  166.6779 C.ar    1  UNL1        0.1007
      4 C         141.7046  141.8693  168.1695 C.ar    1  UNL1        0.1014
      5 N         142.7845  142.7135  168.7788 N.ar    1  UNL1       -0.2424
      6 C         142.8950  142.8282  170.2703 C.ar    1  UNL1        0.0989
      7 C         141.9256  142.0988  171.1525 C.ar    1  UNL1        0.0208
      8 C         140.8457  141.2546  170.5432 C.ar    1  UNL1        0.0079
      9 C         140.7353  141.1399  169.0517 C.ar    1  UNL1        0.0764
     10 C         139.6553  140.2957  168.4423 C.ar    1  UNL1        0.2778
     11 O         138.6860  139.5663  169.3245 O.2     1  UNL1       -0.2655
     12 C         138.4649  139.3368  166.3415 C.3     1  UNL1        0.1465
     13 C         137.6960  141.3028  163.8529 C.3     1  UNL1        0.0897
     14 N         138.1699  139.8839  163.7418 N.3     1  UNL1       -0.2709
     15 C         138.3735  139.1197  162.4673 C.3     1  UNL1        0.0722
     16 C         138.8529  137.7436  162.8235 C.3     1  UNL1        0.0188
     17 C         138.9454  137.6575  164.3181 C.3     1  UNL1        0.0194
     18 C         138.5233  138.9803  164.8857 C.3     1  UNL1        0.0822
     19 C         142.5635  142.4840  165.7957 C.3     1  UNL1        0.0754
     20 C         142.0609  143.2905  164.6352 C.ar    1  UNL1       -0.0160
     21 C         142.8697  143.3755  163.3747 C.ar    1  UNL1       -0.0030
     22 C         142.3671  144.1820  162.2141 C.ar    1  UNL1        0.0111
     23 C         141.0559  144.9036  162.3140 C.ar    1  UNL1        0.0577
     24 CL        140.5534  145.7101  161.1534 Cl      1  UNL1       -0.0822
     25 C         140.2472  144.8186  163.5744 C.ar    1  UNL1        0.0111
     26 C         140.7497  144.0121  164.7351 C.ar    1  UNL1       -0.0030
@<TRIPOS>BOND
     1    13    14    1
     2    14    15    1
     3    15    16    1
     4    16    17    1
     5    17    18    1
     6    18    12    1
     7    12     1    1
     8     1     2   ar
     9     2     3   ar
    10     3    19    1
    11    19    20    1
    12    20    21   ar
    13    21    22   ar
    14    22    23   ar
    15    23    24    1
    16    23    25   ar
    17    25    26   ar
    18     3     4   ar
    19     4     5   ar
    20     5     6   ar
    21     6     7   ar
    22     7     8   ar
    23     8     9   ar
    24     9    10   ar
    25    10    11    2
    26    18    14    1
    27    10     1   ar
    28    26    20   ar
    29     9     4   ar
@<TRIPOS>MOLECULE
*****
 26 29 0 0 0
SMALL
GASTEIGER

@<TRIPOS>ATOM
      1 N         142.1191  142.0975  166.3838 N.ar    1  UNL1       -0.2155
      2 N         140.8903  141.3736  165.9191 N.ar    1  UNL1       -0.1693
      3 C         140.0323  140.6413  166.9077 C.ar    1  UNL1        0.1007
      4 C         140.4031  140.6328  168.3612 C.ar    1  UNL1        0.1014
      5 N         139.5451  139.9004  169.3498 N.ar    1  UNL1       -0.2424
      6 C         139.9159  139.8920  170.8032 C.ar    1  UNL1        0.0989
      7 C         141.1447  140.6158  171.2679 C.ar    1  UNL1        0.0208
      8 C         142.0027  141.3482  170.2793 C.ar    1  UNL1        0.0079
      9 C         141.6319  141.3566  168.8259 C.ar    1  UNL1        0.0764
     10 C         142.4899  142.0890  167.8372 C.ar    1  UNL1        0.2778
     11 O         143.7188  142.8129  168.3019 O.2     1  UNL1       -0.2655
     12 C         142.9771  142.8298  165.3951 C.3     1  UNL1        0.1465
     13 C         144.2395  144.0065  162.6254 C.3     1  UNL1        0.0897
     14 N         144.3861  142.6034  163.1349 N.3     1  UNL1       -0.2709
     15 C         145.1387  141.4947  162.4608 C.3     1  UNL1        0.0722
     16 C         145.0236  140.2686  163.3173 C.3     1  UNL1        0.0188
     17 C         144.1998  140.6195  164.5207 C.3     1  UNL1        0.0194
     18 C         143.8059  142.0625  164.4080 C.3     1  UNL1        0.0822
     19 C         138.8034  139.9174  166.4430 C.3     1  UNL1        0.0754
     20 C         138.4760  139.8582  164.9804 C.ar    1  UNL1       -0.0160
     21 C         138.7689  138.6136  164.1959 C.ar    1  UNL1       -0.0030
     22 C         138.4414  138.5545  162.7333 C.ar    1  UNL1        0.0111
     23 C         137.8210  139.7398  162.0551 C.ar    1  UNL1        0.0577
     24 CL        137.4935  139.6807  160.5925 Cl      1  UNL1       -0.0822
     25 C         137.5280  140.9844  162.8395 C.ar    1  UNL1        0.0111
     26 C         137.8555  141.0436  164.3021 C.ar    1  UNL1       -0.0030
@<TRIPOS>BOND
     1    13    14    1
     2    14    15    1
     3    15    16    1
     4    16    17    1
     5    17    18    1
     6    18    12    1
     7    12     1    1
     8     1     2   ar
     9     2     3   ar
    10     3    19    1
    11    19    20    1
    12    20    21   ar
    13    21    22   ar
    14    22    23   ar
    15    23    24    1
    16    23    25   ar
    17    25    26   ar
    18     3     4   ar
    19     4     5   ar
    20     5     6   ar
    21     6     7   ar
    22     7     8   ar
    23     8     9   ar
    24     9    10   ar
    25    10    11    2
    26    18    14    1
    27    10     1   ar
    28    26    20   ar
    29     9     4   ar
@<TRIPOS>MOLECULE
*****
 26 29 0 0 0
SMALL
GASTEIGER

@<TRIPOS>ATOM
      1 N         140.9268  142.4746  166.3998 N.ar    1  UNL1       -0.2155
      2 N         141.7385  141.3426  165.8432 N.ar    1  UNL1       -0.1693
      3 C         142.4001  140.3670  166.7707 C.ar    1  UNL1        0.1007
      4 C         142.2501  140.5233  168.2550 C.ar    1  UNL1        0.1014
      5 N         142.9117  139.5477  169.1826 N.ar    1  UNL1       -0.2424
      6 C         142.7617  139.7041  170.6668 C.ar    1  UNL1        0.0989
      7 C         141.9500  140.8360  171.2235 C.ar    1  UNL1        0.0208
      8 C         141.2884  141.8116  170.2959 C.ar    1  UNL1        0.0079
      9 C         141.4384  141.6553  168.8117 C.ar    1  UNL1        0.0764
     10 C         140.7768  142.6309  167.8841 C.ar    1  UNL1        0.2778
     11 O         139.9651  143.7629  168.4408 O.2     1  UNL1       -0.2655
     12 C         140.2651  143.4502  165.4722 C.3     1  UNL1        0.1465
     13 C         139.3508  144.9608  162.7279 C.3     1  UNL1        0.0897
     14 N         138.7902  143.6729  163.2542 N.3     1  UNL1       -0.2709
     15 C         137.7109  142.8532  162.6114 C.3     1  UNL1        0.0722
     16 C         137.4641  141.6522  163.4756 C.3     1  UNL1        0.0188
     17 C         138.3909  141.7297  164.6524 C.3     1  UNL1        0.0194
     18 C         139.2105  142.9785  164.5156 C.3     1  UNL1        0.0822
     19 C         143.2118  139.2351  166.2140 C.3     1  UNL1        0.0754
     20 C         143.0620  138.8419  164.7742 C.ar    1  UNL1       -0.0160
     21 C         141.8654  138.0524  164.3328 C.ar    1  UNL1       -0.0030
     22 C         141.7157  137.6593  162.8931 C.ar    1  UNL1        0.0111
     23 C         142.7626  138.0556  161.8946 C.ar    1  UNL1        0.0577
     24 CL        142.6129  137.6625  160.4549 Cl      1  UNL1       -0.0822
     25 C         143.9592  138.8451  162.3359 C.ar    1  UNL1        0.0111
     26 C         144.1090  139.2383  163.7758 C.ar    1  UNL1       -0.0030
@<TRIPOS>BOND
     1    13    14    1
     2    14    15    1
     3    15    16    1
     4    16    17    1
     5    17    18    1
     6    18    12    1
     7    12     1    1
     8     1     2   ar
     9     2     3   ar
    10     3    19    1
    11    19    20    1
    12    20    21   ar
    13    21    22   ar
    14    22    23   ar
    15    23    24    1
    16    23    25   ar
    17    25    26   ar
    18     3     4   ar
    19     4     5   ar
    20     5     6   ar
    21     6     7   ar
    22     7     8   ar
    23     8     9   ar
    24     9    10   ar
    25    10    11    2
    26    18    14    1
    27    10     1   ar
    28    26    20   ar
    29     9     4   ar
@<TRIPOS>MOLECULE
*****
 26 29 0 0 0
SMALL
GASTEIGER

@<TRIPOS>ATOM
      1 N         142.4620  139.3003  165.1880 N.ar    1  UNL1       -0.2155
      2 N         141.2714  140.1633  164.8921 N.ar    1  UNL1       -0.1693
      3 C         140.4647  140.7398  166.0177 C.ar    1  UNL1        0.1007
      4 C         140.8487  140.4534  167.4392 C.ar    1  UNL1        0.1014
      5 N         140.0421  141.0299  168.5647 N.ar    1  UNL1       -0.2424
      6 C         140.4261  140.7434  169.9861 C.ar    1  UNL1        0.0989
      7 C         141.6168  139.8804  170.2820 C.ar    1  UNL1        0.0208
      8 C         142.4234  139.3039  169.1564 C.ar    1  UNL1        0.0079
      9 C         142.0394  139.5904  167.7350 C.ar    1  UNL1        0.0764
     10 C         142.8461  139.0139  166.6094 C.ar    1  UNL1        0.2778
     11 O         144.0367  138.1509  166.9053 O.2     1  UNL1       -0.2655
     12 C         143.2687  138.7238  164.0624 C.3     1  UNL1        0.1465
     13 C         145.4795  141.1187  163.8997 C.3     1  UNL1        0.0897
     14 N         144.5923  140.6602  162.7805 N.3     1  UNL1       -0.2709
     15 C         144.5656  141.2221  161.3900 C.3     1  UNL1        0.0722
     16 C         143.5328  140.4685  160.6053 C.3     1  UNL1        0.0188
     17 C         142.9213  139.4409  161.5109 C.3     1  UNL1        0.0194
     18 C         143.5761  139.5594  162.8552 C.3     1  UNL1        0.0822
     19 C         139.2740  141.6028  165.7218 C.3     1  UNL1        0.0754
     20 C         139.4069  142.7700  164.7891 C.ar    1  UNL1       -0.0160
     21 C         140.5997  143.6746  164.8848 C.ar    1  UNL1       -0.0030
     22 C         140.7326  144.8417  163.9521 C.ar    1  UNL1        0.0111
     23 C         139.6727  145.1045  162.9237 C.ar    1  UNL1        0.0577
     24 CL        139.8056  146.2717  161.9910 Cl      1  UNL1       -0.0822
     25 C         138.4799  144.2000  162.8280 C.ar    1  UNL1        0.0111
     26 C         138.3470  143.0328  163.7607 C.ar    1  UNL1       -0.0030
@<TRIPOS>BOND
     1    13    14    1
     2    14    15    1
     3    15    16    1
     4    16    17    1
     5    17    18    1
     6    18    12    1
     7    12     1    1
     8     1     2   ar
     9     2     3   ar
    10     3    19    1
    11    19    20    1
    12    20    21   ar
    13    21    22   ar
    14    22    23   ar
    15    23    24    1
    16    23    25   ar
    17    25    26   ar
    18     3     4   ar
    19     4     5   ar
    20     5     6   ar
    21     6     7   ar
    22     7     8   ar
    23     8     9   ar
    24     9    10   ar
    25    10    11    2
    26    18    14    1
    27    10     1   ar
    28    26    20   ar
    29     9     4   ar
@<TRIPOS>MOLECULE
*****
 26 29 0 0 0
SMALL
GASTEIGER

@<TRIPOS>ATOM
      1 N         142.2999  139.9739  166.7442 N.ar    1  UNL1       -0.2155
      2 N         141.5782  141.0804  166.0337 N.ar    1  UNL1       -0.1693
      3 C         140.8384  142.1205  166.8216 C.ar    1  UNL1        0.1007
      4 C         140.8202  142.0541  168.3201 C.ar    1  UNL1        0.1014
      5 N         140.0804  143.0942  169.1079 N.ar    1  UNL1       -0.2424
      6 C         140.0622  143.0278  170.6063 C.ar    1  UNL1        0.0989
      7 C         140.7839  141.9213  171.3168 C.ar    1  UNL1        0.0208
      8 C         141.5237  140.8812  170.5290 C.ar    1  UNL1        0.0079
      9 C         141.5419  140.9476  169.0306 C.ar    1  UNL1        0.0764
     10 C         142.2817  139.9075  168.2426 C.ar    1  UNL1        0.2778
     11 O         143.0034  138.8010  168.9531 O.2     1  UNL1       -0.2655
     12 C         143.0398  138.9338  165.9563 C.3     1  UNL1        0.1465
     13 C         144.1417  139.4051  162.9210 C.3     1  UNL1        0.0897
     14 N         142.9434  138.5898  163.3073 N.3     1  UNL1       -0.2709
     15 C         142.0412  137.8480  162.3661 C.3     1  UNL1        0.0722
     16 C         140.9770  137.1729  163.1796 C.3     1  UNL1        0.0188
     17 C         141.2216  137.4974  164.6235 C.3     1  UNL1        0.0194
     18 C         142.4369  138.3732  164.7024 C.3     1  UNL1        0.0822
     19 C         140.1167  143.2270  166.1111 C.3     1  UNL1        0.0754
     20 C         139.6122  143.0176  164.7141 C.ar    1  UNL1       -0.0160
     21 C         138.2928  142.3413  164.4866 C.ar    1  UNL1       -0.0030
     22 C         137.7883  142.1319  163.0896 C.ar    1  UNL1        0.0111
     23 C         138.6032  142.5989  161.9201 C.ar    1  UNL1        0.0577
     24 CL        138.0987  142.3895  160.5231 Cl      1  UNL1       -0.0822
     25 C         139.9226  143.2752  162.1475 C.ar    1  UNL1        0.0111
     26 C         140.4271  143.4846  163.5445 C.ar    1  UNL1       -0.0030
@<TRIPOS>BOND
     1    13    14    1
     2    14    15    1
     3    15    16    1
     4    16    17    1
     5    17    18    1
     6    18    12    1
     7    12     1    1
     8     1     2   ar
     9     2     3   ar
    10     3    19    1
    11    19    20    1
    12    20    21   ar
    13    21    22   ar
    14    22    23   ar
    15    23    24    1
    16    23    25   ar
    17    25    26   ar
    18     3     4   ar
    19     4     5   ar
    20     5     6   ar
    21     6     7   ar
    22     7     8   ar
    23     8     9   ar
    24     9    10   ar
    25    10    11    2
    26    18    14    1
    27    10     1   ar
    28    26    20   ar
    29     9     4   ar
