@<TRIPOS>MOLECULE
*****
 25 27 0 0 0
SMALL
GASTEIGER

@<TRIPOS>ATOM
      1 O         140.9420  140.9841  163.7325 O.2     1  UNL1       -0.2699
      2 C         141.1651  140.1228  164.9401 C.2     1  UNL1        0.2490
      3 N         142.5330  140.0221  165.5472 N.am    1  UNL1       -0.2763
      4 C         140.0202  139.3621  165.5407 C.ar    1  UNL1        0.0575
      5 C         139.2565  139.9429  166.6937 C.ar    1  UNL1        0.0045
      6 C         138.1116  139.1824  167.2943 C.ar    1  UNL1        0.0001
      7 C         137.7304  137.8410  166.7418 C.ar    1  UNL1       -0.0001
      8 C         138.4941  137.2601  165.5888 C.ar    1  UNL1        0.0040
      9 C         139.6390  138.0207  164.9882 C.ar    1  UNL1        0.0758
     10 C         140.4026  137.4399  163.8352 C.3     1  UNL1        0.4187
     11 F         141.1663  136.8590  162.6822 F       1  UNL1       -0.1659
     12 F         139.4472  138.0866  162.8766 F       1  UNL1       -0.1659
     13 F         141.3581  136.7931  164.7938 F       1  UNL1       -0.1659
     14 C         143.6780  140.7828  164.9466 C.3     1  UNL1        0.0927
     15 C         144.7613  140.2086  164.0825 C.3     1  UNL1        0.0383
     16 C         145.6934  141.3221  163.7066 C.3     1  UNL1        0.0704
     17 N         145.1862  142.5845  164.3385 N.3     1  UNL1       -0.2960
     18 C         143.9405  142.2511  165.1049 C.3     1  UNL1        0.0887
     19 H         144.9742  143.2724  163.6158 H       1  UNL1        0.1233
     20 C         142.7561  139.1608  166.7548 C.3     1  UNL1        0.0936
     21 C         142.7167  139.7673  168.1263 C.3     1  UNL1        0.0199
     22 C         142.6155  139.0153  169.4202 C.3     1  UNL1        0.0017
     23 C         142.6079  140.0155  170.5382 C.3     1  UNL1        0.0001
     24 C         142.7043  141.3856  169.9350 C.3     1  UNL1        0.0001
     25 C         142.7716  141.2321  168.4444 C.3     1  UNL1        0.0017
@<TRIPOS>BOND
     1     1     2    2
     2     2     4    1
     3     4     5   ar
     4     5     6   ar
     5     6     7   ar
     6     7     8   ar
     7     8     9   ar
     8     9    10    1
     9    10    11    1
    10    10    12    1
    11    10    13    1
    12     2     3   am
    13     3    20    1
    14    20    21    1
    15    21    22    1
    16    22    23    1
    17    23    24    1
    18    24    25    1
    19    14     3    1
    20    14    15    1
    21    15    16    1
    22    16    17    1
    23    17    18    1
    24     9     4   ar
    25    25    21    1
    26    18    14    1
    27    17    19    1
@<TRIPOS>MOLECULE
*****
 25 27 0 0 0
SMALL
GASTEIGER

@<TRIPOS>ATOM
      1 O         143.9962  137.9971  167.1481 O.2     1  UNL1       -0.2699
      2 C         143.0353  138.8540  166.3786 C.2     1  UNL1        0.2490
      3 N         142.3949  140.0400  167.0368 N.am    1  UNL1       -0.2763
      4 C         142.7147  138.5249  164.9506 C.ar    1  UNL1        0.0575
      5 C         141.5883  137.5870  164.6318 C.ar    1  UNL1        0.0045
      6 C         141.2677  137.2579  163.2039 C.ar    1  UNL1        0.0001
      7 C         142.0735  137.8667  162.0949 C.ar    1  UNL1       -0.0001
      8 C         143.1998  138.8046  162.4137 C.ar    1  UNL1        0.0040
      9 C         143.5204  139.1337  163.8415 C.ar    1  UNL1        0.0758
     10 C         144.6468  140.0717  164.1603 C.3     1  UNL1        0.4187
     11 F         145.7731  141.0096  164.4791 F       1  UNL1       -0.1659
     12 F         143.7410  141.2422  163.9167 F       1  UNL1       -0.1659
     13 F         145.5526  138.9011  164.4039 F       1  UNL1       -0.1659
     14 C         142.7155  140.3691  168.4648 C.3     1  UNL1        0.0927
     15 C         142.4882  139.4755  169.6480 C.3     1  UNL1        0.0383
     16 C         142.9519  140.2037  170.8746 C.3     1  UNL1        0.0704
     17 N         143.4657  141.5474  170.4496 N.3     1  UNL1       -0.2960
     18 C         143.3196  141.6496  168.9601 C.3     1  UNL1        0.0887
     19 H         144.4480  141.6400  170.7082 H       1  UNL1        0.1233
     20 C         141.4339  140.8969  166.2673 C.3     1  UNL1        0.0936
     21 C         140.0716  140.3721  165.9222 C.3     1  UNL1        0.0199
     22 C         139.3502  140.5790  164.6234 C.3     1  UNL1        0.0017
     23 C         138.0243  139.8831  164.7138 C.3     1  UNL1        0.0001
     24 C         137.9265  139.2463  166.0685 C.3     1  UNL1        0.0001
     25 C         139.1918  139.5485  166.8152 C.3     1  UNL1        0.0017
@<TRIPOS>BOND
     1     1     2    2
     2     2     4    1
     3     4     5   ar
     4     5     6   ar
     5     6     7   ar
     6     7     8   ar
     7     8     9   ar
     8     9    10    1
     9    10    11    1
    10    10    12    1
    11    10    13    1
    12     2     3   am
    13     3    20    1
    14    20    21    1
    15    21    22    1
    16    22    23    1
    17    23    24    1
    18    24    25    1
    19    14     3    1
    20    14    15    1
    21    15    16    1
    22    16    17    1
    23    17    18    1
    24     9     4   ar
    25    25    21    1
    26    18    14    1
    27    17    19    1
@<TRIPOS>MOLECULE
*****
 25 27 0 0 0
SMALL
GASTEIGER

@<TRIPOS>ATOM
      1 O         144.4827  142.0462  165.1178 O.2     1  UNL1       -0.2699
      2 C         143.1873  142.1669  165.8645 C.2     1  UNL1        0.2490
      3 N         142.0395  142.9188  165.2585 N.am    1  UNL1       -0.2763
      4 C         143.0398  141.5357  167.2172 C.ar    1  UNL1        0.0575
      5 C         143.3193  142.3377  168.4536 C.ar    1  UNL1        0.0045
      6 C         143.1719  141.7065  169.8063 C.ar    1  UNL1        0.0001
      7 C         142.7449  140.2733  169.9226 C.ar    1  UNL1       -0.0001
      8 C         142.4654  139.4713  168.6862 C.ar    1  UNL1        0.0040
      9 C         142.6129  140.1025  167.3335 C.ar    1  UNL1        0.0758
     10 C         142.3334  139.3004  166.0972 C.3     1  UNL1        0.4187
     11 F         142.0539  138.4984  164.8608 F       1  UNL1       -0.1659
     12 F         140.8927  139.7141  166.1545 F       1  UNL1       -0.1659
     13 F         143.7741  138.8868  166.0398 F       1  UNL1       -0.1659
     14 C         142.1870  143.5500  163.9058 C.3     1  UNL1        0.0927
     15 C         141.9618  142.8717  162.5870 C.3     1  UNL1        0.0383
     16 C         142.2212  143.8729  161.5005 C.3     1  UNL1        0.0704
     17 N         142.6068  145.1700  162.1479 N.3     1  UNL1       -0.2960
     18 C         142.5857  144.9704  163.6345 C.3     1  UNL1        0.0887
     19 H         141.9420  145.8982  161.8869 H       1  UNL1        0.1233
     20 C         140.7442  143.0394  166.0052 C.3     1  UNL1        0.0936
     21 C         139.4533  143.1666  165.2519 C.3     1  UNL1        0.0199
     22 C         138.6749  142.0397  164.6402 C.3     1  UNL1        0.0017
     23 C         137.4546  142.6195  163.9882 C.3     1  UNL1        0.0001
     24 C         137.4790  144.1048  164.1971 C.3     1  UNL1        0.0001
     25 C         138.7142  144.4428  164.9781 C.3     1  UNL1        0.0017
@<TRIPOS>BOND
     1     1     2    2
     2     2     4    1
     3     4     5   ar
     4     5     6   ar
     5     6     7   ar
     6     7     8   ar
     7     8     9   ar
     8     9    10    1
     9    10    11    1
    10    10    12    1
    11    10    13    1
    12     2     3   am
    13     3    20    1
    14    20    21    1
    15    21    22    1
    16    22    23    1
    17    23    24    1
    18    24    25    1
    19    14     3    1
    20    14    15    1
    21    15    16    1
    22    16    17    1
    23    17    18    1
    24     9     4   ar
    25    25    21    1
    26    18    14    1
    27    17    19    1
@<TRIPOS>MOLECULE
*****
 25 27 0 0 0
SMALL
GASTEIGER

@<TRIPOS>ATOM
      1 O         142.9599  139.5882  165.5908 O.2     1  UNL1       -0.2699
      2 C         141.6276  140.0113  165.0467 C.2     1  UNL1        0.2490
      3 N         141.5552  141.0327  163.9506 N.am    1  UNL1       -0.2763
      4 C         140.3677  139.4130  165.5988 C.ar    1  UNL1        0.0575
      5 C         139.6854  140.0519  166.7720 C.ar    1  UNL1        0.0045
      6 C         138.4256  139.4537  167.3241 C.ar    1  UNL1        0.0001
      7 C         137.8480  138.2166  166.7030 C.ar    1  UNL1       -0.0001
      8 C         138.5302  137.5777  165.5298 C.ar    1  UNL1        0.0040
      9 C         139.7900  138.1759  164.9777 C.ar    1  UNL1        0.0758
     10 C         140.4723  137.5370  163.8045 C.3     1  UNL1        0.4187
     11 F         141.1545  136.8981  162.6313 F       1  UNL1       -0.1659
     12 F         141.3333  136.7401  164.7392 F       1  UNL1       -0.1659
     13 F         139.6113  138.3339  162.8698 F       1  UNL1       -0.1659
     14 C         142.8151  141.6310  163.3985 C.3     1  UNL1        0.0927
     15 C         143.3765  142.9783  163.7441 C.3     1  UNL1        0.0383
     16 C         144.6431  143.1670  162.9631 C.3     1  UNL1        0.0704
     17 N         144.8646  141.9362  162.1346 N.3     1  UNL1       -0.2960
     18 C         143.7347  140.9868  162.4038 C.3     1  UNL1        0.0887
     19 H         145.7508  141.5011  162.3911 H       1  UNL1        0.1233
     20 C         140.2229  141.4558  163.4065 C.3     1  UNL1        0.0936
     21 C         139.4670  142.5747  164.0598 C.3     1  UNL1        0.0199
     22 C         137.9853  142.7969  163.9890 C.3     1  UNL1        0.0017
     23 C         137.6626  144.0274  164.7840 C.3     1  UNL1        0.0001
     24 C         138.9451  144.5655  165.3461 C.3     1  UNL1        0.0001
     25 C         140.0602  143.6677  164.8985 C.3     1  UNL1        0.0017
@<TRIPOS>BOND
     1     1     2    2
     2     2     4    1
     3     4     5   ar
     4     5     6   ar
     5     6     7   ar
     6     7     8   ar
     7     8     9   ar
     8     9    10    1
     9    10    11    1
    10    10    12    1
    11    10    13    1
    12     2     3   am
    13     3    20    1
    14    20    21    1
    15    21    22    1
    16    22    23    1
    17    23    24    1
    18    24    25    1
    19    14     3    1
    20    14    15    1
    21    15    16    1
    22    16    17    1
    23    17    18    1
    24     9     4   ar
    25    25    21    1
    26    18    14    1
    27    17    19    1
@<TRIPOS>MOLECULE
*****
 25 27 0 0 0
SMALL
GASTEIGER

@<TRIPOS>ATOM
      1 O         141.6854  138.0768  165.2094 O.2     1  UNL1       -0.2699
      2 C         141.9728  139.3782  165.8977 C.2     1  UNL1        0.2490
      3 N         142.7173  140.4609  165.1742 N.am    1  UNL1       -0.2763
      4 C         141.5156  139.5969  167.3095 C.ar    1  UNL1        0.0575
      5 C         142.4558  139.3423  168.4502 C.ar    1  UNL1        0.0045
      6 C         141.9988  139.5609  169.8620 C.ar    1  UNL1        0.0001
      7 C         140.6015  140.0341  170.1331 C.ar    1  UNL1       -0.0001
      8 C         139.6613  140.2888  168.9925 C.ar    1  UNL1        0.0040
      9 C         140.1183  140.0701  167.5807 C.ar    1  UNL1        0.0758
     10 C         139.1781  140.3248  166.4400 C.3     1  UNL1        0.4187
     11 F         138.2379  140.5794  165.2993 F       1  UNL1       -0.1659
     12 F         138.6865  138.9104  166.5294 F       1  UNL1       -0.1659
     13 F         139.6697  141.7391  166.3505 F       1  UNL1       -0.1659
     14 C         143.1744  140.2423  163.7623 C.3     1  UNL1        0.0927
     15 C         142.3694  140.5050  162.5242 C.3     1  UNL1        0.0383
     16 C         143.2143  140.1476  161.3375 C.3     1  UNL1        0.0704
     17 N         144.5416  139.6640  161.8421 N.3     1  UNL1       -0.2960
     18 C         144.5169  139.7225  163.3409 C.3     1  UNL1        0.0887
     19 H         145.2866  140.2619  161.4846 H       1  UNL1        0.1233
     20 C         143.0046  141.7623  165.8625 C.3     1  UNL1        0.0936
     21 C         142.9527  143.0470  165.0898 C.3     1  UNL1        0.0199
     22 C         144.1252  143.9173  164.7466 C.3     1  UNL1        0.0017
     23 C         143.6163  145.0951  163.9692 C.3     1  UNL1        0.0001
     24 C         142.1294  144.9525  163.8321 C.3     1  UNL1        0.0001
     25 C         141.7193  143.6867  164.5246 C.3     1  UNL1        0.0017
@<TRIPOS>BOND
     1     1     2    2
     2     2     4    1
     3     4     5   ar
     4     5     6   ar
     5     6     7   ar
     6     7     8   ar
     7     8     9   ar
     8     9    10    1
     9    10    11    1
    10    10    12    1
    11    10    13    1
    12     2     3   am
    13     3    20    1
    14    20    21    1
    15    21    22    1
    16    22    23    1
    17    23    24    1
    18    24    25    1
    19    14     3    1
    20    14    15    1
    21    15    16    1
    22    16    17    1
    23    17    18    1
    24     9     4   ar
    25    25    21    1
    26    18    14    1
    27    17    19    1
@<TRIPOS>MOLECULE
*****
 25 27 0 0 0
SMALL
GASTEIGER

@<TRIPOS>ATOM
      1 O         138.1760  138.8864  167.4372 O.2     1  UNL1       -0.2699
      2 C         139.0438  139.6822  166.5079 C.2     1  UNL1        0.2490
      3 N         140.2649  140.3774  167.0329 N.am    1  UNL1       -0.2763
      4 C         138.6906  139.7827  165.0535 C.ar    1  UNL1        0.0575
      5 C         137.7898  140.8824  164.5747 C.ar    1  UNL1        0.0045
      6 C         137.4366  140.9829  163.1204 C.ar    1  UNL1        0.0001
      7 C         137.9841  139.9837  162.1449 C.ar    1  UNL1       -0.0001
      8 C         138.8849  138.8840  162.6236 C.ar    1  UNL1        0.0040
      9 C         139.2382  138.7835  164.0779 C.ar    1  UNL1        0.0758
     10 C         140.1389  137.6838  164.5567 C.3     1  UNL1        0.4187
     11 F         141.0397  136.5840  165.0355 F       1  UNL1       -0.1659
     12 F         141.3361  138.4712  164.1132 F       1  UNL1       -0.1659
     13 F         138.9418  136.8963  165.0003 F       1  UNL1       -0.1659
     14 C         140.6181  140.2769  168.4873 C.3     1  UNL1        0.0927
     15 C         139.8668  140.9067  169.6227 C.3     1  UNL1        0.0383
     16 C         140.5690  140.5480  170.8987 C.3     1  UNL1        0.0704
     17 N         141.7544  139.6966  170.5520 N.3     1  UNL1       -0.2960
     18 C         141.7847  139.5290  169.0616 C.3     1  UNL1        0.0887
     19 H         141.6688  138.7848  171.0011 H       1  UNL1        0.1233
     20 C         141.1327  141.1732  166.1036 C.3     1  UNL1        0.0936
     21 C         140.6143  142.4430  165.4962 C.3     1  UNL1        0.0199
     22 C         139.7551  143.4625  166.1836 C.3     1  UNL1        0.0017
     23 C         139.4738  144.5658  165.2070 C.3     1  UNL1        0.0001
     24 C         140.1592  144.2281  163.9161 C.3     1  UNL1        0.0001
     25 C         140.8640  142.9162  164.0949 C.3     1  UNL1        0.0017
@<TRIPOS>BOND
     1     1     2    2
     2     2     4    1
     3     4     5   ar
     4     5     6   ar
     5     6     7   ar
     6     7     8   ar
     7     8     9   ar
     8     9    10    1
     9    10    11    1
    10    10    12    1
    11    10    13    1
    12     2     3   am
    13     3    20    1
    14    20    21    1
    15    21    22    1
    16    22    23    1
    17    23    24    1
    18    24    25    1
    19    14     3    1
    20    14    15    1
    21    15    16    1
    22    16    17    1
    23    17    18    1
    24     9     4   ar
    25    25    21    1
    26    18    14    1
    27    17    19    1
@<TRIPOS>MOLECULE
*****
 25 27 0 0 0
SMALL
GASTEIGER

@<TRIPOS>ATOM
      1 O         139.3167  140.0300  167.0045 O.2     1  UNL1       -0.2699
      2 C         139.9704  141.3664  166.8128 C.2     1  UNL1        0.2490
      3 N         139.7129  142.1549  165.5631 N.am    1  UNL1       -0.2763
      4 C         140.8816  141.9143  167.8710 C.ar    1  UNL1        0.0575
      5 C         140.3498  142.8706  168.8970 C.ar    1  UNL1        0.0045
      6 C         141.2610  143.4185  169.9551 C.ar    1  UNL1        0.0001
      7 C         142.7039  143.0100  169.9872 C.ar    1  UNL1       -0.0001
      8 C         143.2357  142.0537  168.9612 C.ar    1  UNL1        0.0040
      9 C         142.3246  141.5058  167.9031 C.ar    1  UNL1        0.0758
     10 C         142.8563  140.5495  166.8771 C.3     1  UNL1        0.4187
     11 F         143.3881  139.5931  165.8511 F       1  UNL1       -0.1659
     12 F         143.4356  141.6985  166.1063 F       1  UNL1       -0.1659
     13 F         142.2770  139.4004  167.6479 F       1  UNL1       -0.1659
     14 C         138.8017  141.6070  164.5050 C.3     1  UNL1        0.0927
     15 C         139.0344  140.3640  163.6983 C.3     1  UNL1        0.0383
     16 C         137.8743  140.1948  162.7625 C.3     1  UNL1        0.0704
     17 N         136.9246  141.3332  162.9909 N.3     1  UNL1       -0.2960
     18 C         137.4978  142.2061  164.0679 C.3     1  UNL1        0.0887
     19 H         136.0165  140.9729  163.2841 H       1  UNL1        0.1233
     20 C         140.3666  143.4913  165.3714 C.3     1  UNL1        0.0936
     21 C         141.4530  143.6552  164.3502 C.3     1  UNL1        0.0199
     22 C         142.1435  144.9388  163.9959 C.3     1  UNL1        0.0017
     23 C         143.1570  144.6413  162.9307 C.3     1  UNL1        0.0001
     24 C         143.0927  143.1738  162.6267 C.3     1  UNL1        0.0001
     25 C         142.0396  142.5644  163.5040 C.3     1  UNL1        0.0017
@<TRIPOS>BOND
     1     1     2    2
     2     2     4    1
     3     4     5   ar
     4     5     6   ar
     5     6     7   ar
     6     7     8   ar
     7     8     9   ar
     8     9    10    1
     9    10    11    1
    10    10    12    1
    11    10    13    1
    12     2     3   am
    13     3    20    1
    14    20    21    1
    15    21    22    1
    16    22    23    1
    17    23    24    1
    18    24    25    1
    19    14     3    1
    20    14    15    1
    21    15    16    1
    22    16    17    1
    23    17    18    1
    24     9     4   ar
    25    25    21    1
    26    18    14    1
    27    17    19    1
@<TRIPOS>MOLECULE
*****
 25 27 0 0 0
SMALL
GASTEIGER

@<TRIPOS>ATOM
      1 O         139.1790  139.5437  167.5006 O.2     1  UNL1       -0.2699
      2 C         139.8233  140.1265  166.2778 C.2     1  UNL1        0.2490
      3 N         141.1919  140.7338  166.3684 N.am    1  UNL1       -0.2763
      4 C         139.0991  140.1020  164.9644 C.ar    1  UNL1        0.0575
      5 C         138.2132  141.2482  164.5751 C.ar    1  UNL1        0.0045
      6 C         137.4889  141.2237  163.2618 C.ar    1  UNL1        0.0001
      7 C         137.6506  140.0532  162.3378 C.ar    1  UNL1       -0.0001
      8 C         138.5365  138.9071  162.7272 C.ar    1  UNL1        0.0040
      9 C         139.2607  138.9315  164.0405 C.ar    1  UNL1        0.0758
     10 C         140.1466  137.7854  164.4299 C.3     1  UNL1        0.4187
     11 F         141.0325  136.6393  164.8192 F       1  UNL1       -0.1659
     12 F         141.2504  138.3522  163.5869 F       1  UNL1       -0.1659
     13 F         139.0429  137.2186  165.2728 F       1  UNL1       -0.1659
     14 C         141.9162  140.7582  167.6818 C.3     1  UNL1        0.0927
     15 C         142.2016  141.9767  168.5087 C.3     1  UNL1        0.0383
     16 C         142.9440  141.5400  169.7368 C.3     1  UNL1        0.0704
     17 N         143.1174  140.0516  169.6689 N.3     1  UNL1       -0.2960
     18 C         142.4821  139.5684  168.3987 C.3     1  UNL1        0.0887
     19 H         142.6645  139.6134  170.4709 H       1  UNL1        0.1233
     20 C         141.8362  141.3166  165.1456 C.3     1  UNL1        0.0936
     21 C         143.2231  140.8975  164.7567 C.3     1  UNL1        0.0199
     22 C         143.7770  139.5056  164.8316 C.3     1  UNL1        0.0017
     23 C         145.1957  139.5446  164.3457 C.3     1  UNL1        0.0001
     24 C         145.5184  140.9607  163.9706 C.3     1  UNL1        0.0001
     25 C         144.2992  141.7968  164.2246 C.3     1  UNL1        0.0017
@<TRIPOS>BOND
     1     1     2    2
     2     2     4    1
     3     4     5   ar
     4     5     6   ar
     5     6     7   ar
     6     7     8   ar
     7     8     9   ar
     8     9    10    1
     9    10    11    1
    10    10    12    1
    11    10    13    1
    12     2     3   am
    13     3    20    1
    14    20    21    1
    15    21    22    1
    16    22    23    1
    17    23    24    1
    18    24    25    1
    19    14     3    1
    20    14    15    1
    21    15    16    1
    22    16    17    1
    23    17    18    1
    24     9     4   ar
    25    25    21    1
    26    18    14    1
    27    17    19    1
@<TRIPOS>MOLECULE
*****
 25 27 0 0 0
SMALL
GASTEIGER

@<TRIPOS>ATOM
      1 O         142.3390  139.1552  166.8556 O.2     1  UNL1       -0.2699
      2 C         142.0313  140.1757  165.8003 C.2     1  UNL1        0.2490
      3 N         140.6565  140.2477  165.2048 N.am    1  UNL1       -0.2763
      4 C         143.0984  141.1244  165.3405 C.ar    1  UNL1        0.0575
      5 C         143.2680  142.4499  166.0219 C.ar    1  UNL1        0.0045
      6 C         144.3351  143.3985  165.5621 C.ar    1  UNL1        0.0001
      7 C         145.2326  143.0216  164.4210 C.ar    1  UNL1       -0.0001
      8 C         145.0631  141.6961  163.7395 C.ar    1  UNL1        0.0040
      9 C         143.9960  140.7475  164.1993 C.ar    1  UNL1        0.0758
     10 C         143.8265  139.4220  163.5179 C.3     1  UNL1        0.4187
     11 F         143.6569  138.0965  162.8364 F       1  UNL1       -0.1659
     12 F         142.9127  140.0563  162.5115 F       1  UNL1       -0.1659
     13 F         144.7402  138.7878  164.5243 F       1  UNL1       -0.1659
     14 C         139.5893  139.2991  165.6646 C.3     1  UNL1        0.0927
     15 C         138.5906  139.5563  166.7537 C.3     1  UNL1        0.0383
     16 C         137.7176  138.3429  166.8782 C.3     1  UNL1        0.0704
     17 N         138.1769  137.3356  165.8659 N.3     1  UNL1       -0.2960
     18 C         139.3337  137.9266  165.1159 C.3     1  UNL1        0.0887
     19 H         137.4171  137.1236  165.2193 H       1  UNL1        0.1233
     20 C         140.3487  141.2683  164.1494 C.3     1  UNL1        0.0936
     21 C         139.5313  142.4784  164.4921 C.3     1  UNL1        0.0199
     22 C         138.1020  142.7157  164.1036 C.3     1  UNL1        0.0017
     23 C         137.6869  144.0477  164.6548 C.3     1  UNL1        0.0001
     24 C         138.8597  144.6335  165.3838 C.3     1  UNL1        0.0001
     25 C         139.9995  143.6636  165.2832 C.3     1  UNL1        0.0017
@<TRIPOS>BOND
     1     1     2    2
     2     2     4    1
     3     4     5   ar
     4     5     6   ar
     5     6     7   ar
     6     7     8   ar
     7     8     9   ar
     8     9    10    1
     9    10    11    1
    10    10    12    1
    11    10    13    1
    12     2     3   am
    13     3    20    1
    14    20    21    1
    15    21    22    1
    16    22    23    1
    17    23    24    1
    18    24    25    1
    19    14     3    1
    20    14    15    1
    21    15    16    1
    22    16    17    1
    23    17    18    1
    24     9     4   ar
    25    25    21    1
    26    18    14    1
    27    17    19    1
