@<TRIPOS>MOLECULE
*****
 20 21 0 0 0
SMALL
GASTEIGER

@<TRIPOS>ATOM
      1 C         141.4607  144.1778  163.7235 C.ar    1  UNL1        0.0282
      2 C         142.6871  144.8849  163.2275 C.ar    1  UNL1        0.0010
      3 C         144.0323  144.2344  163.3582 C.ar    1  UNL1        0.0113
      4 C         144.1513  142.8769  163.9849 C.ar    1  UNL1        0.0607
      5 CL        145.4966  142.2264  164.1156 Cl      1  UNL1       -0.0821
      6 C         142.9250  142.1698  164.4809 C.ar    1  UNL1        0.0486
      7 C         141.5797  142.8202  164.3502 C.ar    1  UNL1        0.1434
      8 C         140.1154  144.8283  163.5928 C.3     1  UNL1        0.0987
      9 C         137.8821  144.4636  164.8691 C.3     1  UNL1        0.0861
     10 N         139.2646  145.0425  164.8093 N.3     1  UNL1       -0.2925
     11 H         139.7798  144.6568  165.6007 H       1  UNL1        0.1236
     12 O         140.3533  142.1131  164.8462 O.3     1  UNL1       -0.4538
     13 C         140.2096  141.7945  166.3049 C.ar    1  UNL1        0.1451
     14 C         139.7610  140.4288  166.7337 C.ar    1  UNL1        0.0398
     15 C         139.6174  140.1103  168.1924 C.ar    1  UNL1        0.0324
     16 C         139.9222  141.1574  169.2223 C.ar    1  UNL1        0.1363
     17 F         139.7785  140.8388  170.6810 F       1  UNL1       -0.2045
     18 C         140.3707  142.5230  168.7936 C.ar    1  UNL1        0.0086
     19 C         140.6756  143.5700  169.8235 C.3     1  UNL1        0.0335
     20 C         140.5144  142.8416  167.3348 C.ar    1  UNL1        0.0355
@<TRIPOS>BOND
     1     9    10    1
     2    10     8    1
     3     8     1    1
     4     1     2   ar
     5     2     3   ar
     6     3     4   ar
     7     4     5    1
     8     4     6   ar
     9     6     7   ar
    10     7    12    1
    11    12    13    1
    12    13    14   ar
    13    14    15   ar
    14    15    16   ar
    15    16    17    1
    16    16    18   ar
    17    18    19    1
    18    18    20   ar
    19     7     1   ar
    20    20    13   ar
    21    10    11    1
@<TRIPOS>MOLECULE
*****
 20 21 0 0 0
SMALL
GASTEIGER

@<TRIPOS>ATOM
      1 C         139.3561  143.6946  164.2345 C.ar    1  UNL1        0.0282
      2 C         139.6822  144.9591  163.4966 C.ar    1  UNL1        0.0010
      3 C         141.1126  145.3269  163.2346 C.ar    1  UNL1        0.0113
      4 C         142.2169  144.4302  163.7105 C.ar    1  UNL1        0.0607
      5 CL        143.6473  144.7980  163.4485 Cl      1  UNL1       -0.0821
      6 C         141.8907  143.1657  164.4484 C.ar    1  UNL1        0.0486
      7 C         140.4603  142.7979  164.7104 C.ar    1  UNL1        0.1434
      8 C         137.9256  143.3268  164.4965 C.3     1  UNL1        0.0987
      9 C         137.4224  141.2673  162.9947 C.3     1  UNL1        0.0861
     10 N         137.4792  141.9020  164.3526 N.3     1  UNL1       -0.2925
     11 H         138.1140  141.3362  164.9158 H       1  UNL1        0.1236
     12 O         140.1341  141.5333  165.4484 O.3     1  UNL1       -0.4538
     13 C         140.2105  141.4979  166.9460 C.ar    1  UNL1        0.1451
     14 C         140.1498  140.1851  167.6693 C.ar    1  UNL1        0.0398
     15 C         140.2261  140.1497  169.1669 C.ar    1  UNL1        0.0324
     16 C         140.3631  141.4270  169.9413 C.ar    1  UNL1        0.1363
     17 F         140.4394  141.3916  171.4389 F       1  UNL1       -0.2045
     18 C         140.4238  142.7397  169.2181 C.ar    1  UNL1        0.0086
     19 C         140.5608  144.0171  169.9924 C.3     1  UNL1        0.0335
     20 C         140.3475  142.7752  167.7204 C.ar    1  UNL1        0.0355
@<TRIPOS>BOND
     1     9    10    1
     2    10     8    1
     3     8     1    1
     4     1     2   ar
     5     2     3   ar
     6     3     4   ar
     7     4     5    1
     8     4     6   ar
     9     6     7   ar
    10     7    12    1
    11    12    13    1
    12    13    14   ar
    13    14    15   ar
    14    15    16   ar
    15    16    17    1
    16    16    18   ar
    17    18    19    1
    18    18    20   ar
    19     7     1   ar
    20    20    13   ar
    21    10    11    1
@<TRIPOS>MOLECULE
*****
 20 21 0 0 0
SMALL
GASTEIGER

@<TRIPOS>ATOM
      1 C         138.2158  139.5154  162.4397 C.ar    1  UNL1        0.0282
      2 C         137.9893  140.5036  161.3342 C.ar    1  UNL1        0.0010
      3 C         137.8206  141.9597  161.6527 C.ar    1  UNL1        0.0113
      4 C         137.8784  142.4275  163.0767 C.ar    1  UNL1        0.0607
      5 CL        137.7098  143.8836  163.3951 Cl      1  UNL1       -0.0821
      6 C         138.1049  141.4393  164.1821 C.ar    1  UNL1        0.0486
      7 C         138.2736  139.9833  163.8636 C.ar    1  UNL1        0.1434
      8 C         138.3844  138.0594  162.1212 C.3     1  UNL1        0.0987
      9 C         140.9777  137.9095  162.1677 C.3     1  UNL1        0.0861
     10 N         139.6371  137.3425  162.5297 N.3     1  UNL1       -0.2925
     11 H         139.6144  137.2663  163.5466 H       1  UNL1        0.1236
     12 O         138.5001  138.9951  164.9692 O.3     1  UNL1       -0.4538
     13 C         139.4568  139.3171  166.0787 C.ar    1  UNL1        0.1451
     14 C         140.9357  139.2429  165.8390 C.ar    1  UNL1        0.0398
     15 C         141.8924  139.5650  166.9485 C.ar    1  UNL1        0.0324
     16 C         141.3702  139.9613  168.2977 C.ar    1  UNL1        0.1363
     17 F         142.3269  140.2834  169.4072 F       1  UNL1       -0.2045
     18 C         139.8914  140.0355  168.5374 C.ar    1  UNL1        0.0086
     19 C         139.3692  140.4318  169.8866 C.3     1  UNL1        0.0335
     20 C         138.9346  139.7134  167.4279 C.ar    1  UNL1        0.0355
@<TRIPOS>BOND
     1     9    10    1
     2    10     8    1
     3     8     1    1
     4     1     2   ar
     5     2     3   ar
     6     3     4   ar
     7     4     5    1
     8     4     6   ar
     9     6     7   ar
    10     7    12    1
    11    12    13    1
    12    13    14   ar
    13    14    15   ar
    14    15    16   ar
    15    16    17    1
    16    16    18   ar
    17    18    19    1
    18    18    20   ar
    19     7     1   ar
    20    20    13   ar
    21    10    11    1
@<TRIPOS>MOLECULE
*****
 20 21 0 0 0
SMALL
GASTEIGER

@<TRIPOS>ATOM
      1 C         141.6295  139.5466  166.4924 C.ar    1  UNL1        0.0282
      2 C         142.5865  139.6343  167.6440 C.ar    1  UNL1        0.0010
      3 C         142.0687  139.8551  169.0344 C.ar    1  UNL1        0.0113
      4 C         140.5938  139.9881  169.2731 C.ar    1  UNL1        0.0607
      5 CL        140.0760  140.2089  170.6634 Cl      1  UNL1       -0.0821
      6 C         139.6368  139.9004  168.1214 C.ar    1  UNL1        0.0486
      7 C         140.1546  139.6797  166.7311 C.ar    1  UNL1        0.1434
      8 C         142.1474  139.3258  165.1020 C.3     1  UNL1        0.0987
      9 C         141.2161  137.0373  164.2987 C.3     1  UNL1        0.0861
     10 N         141.3459  138.5212  164.1221 N.3     1  UNL1       -0.2925
     11 H         140.4000  138.9027  164.1317 H       1  UNL1        0.1236
     12 O         139.1975  139.5919  165.5794 O.3     1  UNL1       -0.4538
     13 C         138.7232  140.8431  164.9014 C.ar    1  UNL1        0.1451
     14 C         137.8657  140.7521  163.6740 C.ar    1  UNL1        0.0398
     15 C         137.3914  142.0032  162.9960 C.ar    1  UNL1        0.0324
     16 C         137.7746  143.3453  163.5454 C.ar    1  UNL1        0.1363
     17 F         137.3003  144.5965  162.8675 F       1  UNL1       -0.2045
     18 C         138.6320  143.4364  164.7728 C.ar    1  UNL1        0.0086
     19 C         139.0152  144.7785  165.3222 C.3     1  UNL1        0.0335
     20 C         139.1064  142.1852  165.4508 C.ar    1  UNL1        0.0355
@<TRIPOS>BOND
     1     9    10    1
     2    10     8    1
     3     8     1    1
     4     1     2   ar
     5     2     3   ar
     6     3     4   ar
     7     4     5    1
     8     4     6   ar
     9     6     7   ar
    10     7    12    1
    11    12    13    1
    12    13    14   ar
    13    14    15   ar
    14    15    16   ar
    15    16    17    1
    16    16    18   ar
    17    18    19    1
    18    18    20   ar
    19     7     1   ar
    20    20    13   ar
    21    10    11    1
@<TRIPOS>MOLECULE
*****
 20 21 0 0 0
SMALL
GASTEIGER

@<TRIPOS>ATOM
      1 C         138.3739  141.7808  162.6603 C.ar    1  UNL1        0.0282
      2 C         137.8286  143.1364  162.3213 C.ar    1  UNL1        0.0010
      3 C         137.8905  144.2438  163.3312 C.ar    1  UNL1        0.0113
      4 C         138.4976  143.9955  164.6801 C.ar    1  UNL1        0.0607
      5 CL        138.5595  145.1029  165.6901 Cl      1  UNL1       -0.0821
      6 C         139.0429  142.6399  165.0192 C.ar    1  UNL1        0.0486
      7 C         138.9810  141.5326  164.0093 C.ar    1  UNL1        0.1434
      8 C         138.3120  140.6735  161.6504 C.3     1  UNL1        0.0987
      9 C         138.1352  138.0943  161.9089 C.3     1  UNL1        0.0861
     10 N         137.4916  139.4491  161.9292 N.3     1  UNL1       -0.2925
     11 H         137.0889  139.5698  162.8585 H       1  UNL1        0.1236
     12 O         139.5263  140.1769  164.3483 O.3     1  UNL1       -0.4538
     13 C         141.0083  139.9458  164.3586 C.ar    1  UNL1        0.1451
     14 C         141.8691  140.5499  163.2889 C.ar    1  UNL1        0.0398
     15 C         143.3511  140.3187  163.2992 C.ar    1  UNL1        0.0324
     16 C         143.9724  139.4834  164.3792 C.ar    1  UNL1        0.1363
     17 F         145.4545  139.2523  164.3894 F       1  UNL1       -0.2045
     18 C         143.1118  138.8793  165.4488 C.ar    1  UNL1        0.0086
     19 C         143.7331  138.0441  166.5288 C.3     1  UNL1        0.0335
     20 C         141.6297  139.1105  165.4386 C.ar    1  UNL1        0.0355
@<TRIPOS>BOND
     1     9    10    1
     2    10     8    1
     3     8     1    1
     4     1     2   ar
     5     2     3   ar
     6     3     4   ar
     7     4     5    1
     8     4     6   ar
     9     6     7   ar
    10     7    12    1
    11    12    13    1
    12    13    14   ar
    13    14    15   ar
    14    15    16   ar
    15    16    17    1
    16    16    18   ar
    17    18    19    1
    18    18    20   ar
    19     7     1   ar
    20    20    13   ar
    21    10    11    1
@<TRIPOS>MOLECULE
*****
 20 21 0 0 0
SMALL
GASTEIGER

@<TRIPOS>ATOM
      1 C         140.5904  139.0718  164.5756 C.ar    1  UNL1        0.0282
      2 C         139.9403  137.7244  164.4670 C.ar    1  UNL1        0.0010
      3 C         138.7866  137.3742  165.3595 C.ar    1  UNL1        0.0113
      4 C         138.2831  138.3713  166.3605 C.ar    1  UNL1        0.0607
      5 CL        137.1294  138.0211  167.2529 Cl      1  UNL1       -0.0821
      6 C         138.9332  139.7187  166.4690 C.ar    1  UNL1        0.0486
      7 C         140.0868  140.0690  165.5766 C.ar    1  UNL1        0.1434
      8 C         141.7440  139.4220  163.6831 C.3     1  UNL1        0.0987
      9 C         143.2508  138.1175  162.0165 C.3     1  UNL1        0.0861
     10 N         142.8244  138.4144  163.4236 N.3     1  UNL1       -0.2925
     11 H         143.6542  138.7378  163.9208 H       1  UNL1        0.1236
     12 O         140.7369  141.4165  165.6852 O.3     1  UNL1       -0.4538
     13 C         141.2992  141.8743  166.9982 C.ar    1  UNL1        0.1451
     14 C         142.6632  141.4221  167.4286 C.ar    1  UNL1        0.0398
     15 C         143.2254  141.8800  168.7417 C.ar    1  UNL1        0.0324
     16 C         142.4238  142.7900  169.6244 C.ar    1  UNL1        0.1363
     17 F         142.9860  143.2478  170.9375 F       1  UNL1       -0.2045
     18 C         141.0598  143.2421  169.1941 C.ar    1  UNL1        0.0086
     19 C         140.2582  144.1521  170.0769 C.3     1  UNL1        0.0335
     20 C         140.4975  142.7843  167.8810 C.ar    1  UNL1        0.0355
@<TRIPOS>BOND
     1     9    10    1
     2    10     8    1
     3     8     1    1
     4     1     2   ar
     5     2     3   ar
     6     3     4   ar
     7     4     5    1
     8     4     6   ar
     9     6     7   ar
    10     7    12    1
    11    12    13    1
    12    13    14   ar
    13    14    15   ar
    14    15    16   ar
    15    16    17    1
    16    16    18   ar
    17    18    19    1
    18    18    20   ar
    19     7     1   ar
    20    20    13   ar
    21    10    11    1
@<TRIPOS>MOLECULE
*****
 20 21 0 0 0
SMALL
GASTEIGER

@<TRIPOS>ATOM
      1 C         139.6393  140.3854  167.3636 C.ar    1  UNL1        0.0282
      2 C         139.3637  140.2807  168.8344 C.ar    1  UNL1        0.0010
      3 C         139.7199  141.4167  169.7469 C.ar    1  UNL1        0.0113
      4 C         140.3517  142.6573  169.1887 C.ar    1  UNL1        0.0607
      5 CL        140.7079  143.7933  170.1013 Cl      1  UNL1       -0.0821
      6 C         140.6273  142.7620  167.7180 C.ar    1  UNL1        0.0486
      7 C         140.2711  141.6260  166.8055 C.ar    1  UNL1        0.1434
      8 C         139.2831  139.2494  166.4511 C.3     1  UNL1        0.0987
      9 C         138.7412  138.9653  163.9261 C.3     1  UNL1        0.0861
     10 N         138.3700  139.4828  165.2842 N.3     1  UNL1       -0.2925
     11 H         137.4721  139.0624  165.5242 H       1  UNL1        0.1236
     12 O         140.5468  141.7308  165.3347 O.3     1  UNL1       -0.4538
     13 C         141.9614  141.7805  164.8385 C.ar    1  UNL1        0.1451
     14 C         142.5277  143.0671  164.3149 C.ar    1  UNL1        0.0398
     15 C         143.9424  143.1169  163.8187 C.ar    1  UNL1        0.0324
     16 C         144.7907  141.8802  163.8459 C.ar    1  UNL1        0.1363
     17 F         146.2053  141.9300  163.3497 F       1  UNL1       -0.2045
     18 C         144.2244  140.5936  164.3694 C.ar    1  UNL1        0.0086
     19 C         145.0728  139.3569  164.3966 C.3     1  UNL1        0.0335
     20 C         142.8097  140.5438  164.8657 C.ar    1  UNL1        0.0355
@<TRIPOS>BOND
     1     9    10    1
     2    10     8    1
     3     8     1    1
     4     1     2   ar
     5     2     3   ar
     6     3     4   ar
     7     4     5    1
     8     4     6   ar
     9     6     7   ar
    10     7    12    1
    11    12    13    1
    12    13    14   ar
    13    14    15   ar
    14    15    16   ar
    15    16    17    1
    16    16    18   ar
    17    18    19    1
    18    18    20   ar
    19     7     1   ar
    20    20    13   ar
    21    10    11    1
@<TRIPOS>MOLECULE
*****
 20 21 0 0 0
SMALL
GASTEIGER

@<TRIPOS>ATOM
      1 C         138.7502  139.0723  165.5507 C.ar    1  UNL1        0.0282
      2 C         139.0488  137.6930  165.0426 C.ar    1  UNL1        0.0010
      3 C         138.9998  137.4090  163.5706 C.ar    1  UNL1        0.0113
      4 C         138.6523  138.5044  162.6066 C.ar    1  UNL1        0.0607
      5 CL        138.6034  138.2204  161.1345 Cl      1  UNL1       -0.0821
      6 C         138.3538  139.8838  163.1147 C.ar    1  UNL1        0.0486
      7 C         138.4028  140.1677  164.5867 C.ar    1  UNL1        0.1434
      8 C         138.7992  139.3563  167.0228 C.3     1  UNL1        0.0987
      9 C         139.9700  140.5733  168.9971 C.3     1  UNL1        0.0861
     10 N         139.6244  140.4973  167.5395 N.3     1  UNL1       -0.2925
     11 H         140.5069  140.4777  167.0283 H       1  UNL1        0.1236
     12 O         138.1042  141.5472  165.0948 O.3     1  UNL1       -0.4538
     13 C         138.6576  142.7452  164.3817 C.ar    1  UNL1        0.1451
     14 C         137.7746  143.5549  163.4790 C.ar    1  UNL1        0.0398
     15 C         138.3280  144.7529  162.7659 C.ar    1  UNL1        0.0324
     16 C         139.7644  145.1412  162.9555 C.ar    1  UNL1        0.1363
     17 F         140.3178  146.3392  162.2424 F       1  UNL1       -0.2045
     18 C         140.6474  144.3316  163.8581 C.ar    1  UNL1        0.0086
     19 C         142.0838  144.7199  164.0476 C.3     1  UNL1        0.0335
     20 C         140.0940  143.1335  164.5712 C.ar    1  UNL1        0.0355
@<TRIPOS>BOND
     1     9    10    1
     2    10     8    1
     3     8     1    1
     4     1     2   ar
     5     2     3   ar
     6     3     4   ar
     7     4     5    1
     8     4     6   ar
     9     6     7   ar
    10     7    12    1
    11    12    13    1
    12    13    14   ar
    13    14    15   ar
    14    15    16   ar
    15    16    17    1
    16    16    18   ar
    17    18    19    1
    18    18    20   ar
    19     7     1   ar
    20    20    13   ar
    21    10    11    1
@<TRIPOS>MOLECULE
*****
 20 21 0 0 0
SMALL
GASTEIGER

@<TRIPOS>ATOM
      1 C         139.7691  138.5535  164.5750 C.ar    1  UNL1        0.0282
      2 C         138.5404  138.1830  165.3513 C.ar    1  UNL1        0.0010
      3 C         138.3395  138.7186  166.7380 C.ar    1  UNL1        0.0113
      4 C         139.3673  139.6247  167.3483 C.ar    1  UNL1        0.0607
      5 CL        139.1664  140.1602  168.7349 Cl      1  UNL1       -0.0821
      6 C         140.5961  139.9951  166.5719 C.ar    1  UNL1        0.0486
      7 C         140.7970  139.4596  165.1853 C.ar    1  UNL1        0.1434
      8 C         139.9700  138.0179  163.1883 C.3     1  UNL1        0.0987
      9 C         142.0972  137.6467  161.7435 C.3     1  UNL1        0.0861
     10 N         141.1966  137.2178  162.8638 N.3     1  UNL1       -0.2925
     11 H         141.7671  137.1976  163.7090 H       1  UNL1        0.1236
     12 O         142.0259  139.8301  164.4089 O.3     1  UNL1       -0.4538
     13 C         142.5387  141.2392  164.4441 C.ar    1  UNL1        0.1451
     14 C         143.9536  141.5122  164.8610 C.ar    1  UNL1        0.0398
     15 C         144.4664  142.9214  164.8962 C.ar    1  UNL1        0.0324
     16 C         143.5645  144.0575  164.5145 C.ar    1  UNL1        0.1363
     17 F         144.0774  145.4667  164.5498 F       1  UNL1       -0.2045
     18 C         142.1498  143.7846  164.0976 C.ar    1  UNL1        0.0086
     19 C         141.2478  144.9207  163.7160 C.3     1  UNL1        0.0335
     20 C         141.6368  142.3754  164.0624 C.ar    1  UNL1        0.0355
@<TRIPOS>BOND
     1     9    10    1
     2    10     8    1
     3     8     1    1
     4     1     2   ar
     5     2     3   ar
     6     3     4   ar
     7     4     5    1
     8     4     6   ar
     9     6     7   ar
    10     7    12    1
    11    12    13    1
    12    13    14   ar
    13    14    15   ar
    14    15    16   ar
    15    16    17    1
    16    16    18   ar
    17    18    19    1
    18    18    20   ar
    19     7     1   ar
    20    20    13   ar
    21    10    11    1
