@<TRIPOS>MOLECULE
*****
 31 34 0 0 0
SMALL
GASTEIGER

@<TRIPOS>ATOM
      1 C         141.1753  144.7616  162.8987 C.3     1  UNL1        0.0004
      2 C         142.2901  145.0608  163.8567 C.3     1  UNL1        0.0014
      3 C         143.6431  144.4477  163.6480 C.3     1  UNL1        0.0157
      4 C         143.8813  143.5354  162.4814 C.3     1  UNL1        0.0542
      5 C         142.7665  143.2362  161.5234 C.3     1  UNL1        0.0157
      6 C         141.4135  143.8494  161.7321 C.3     1  UNL1        0.0014
      7 N         145.2343  142.9223  162.2727 N.3     1  UNL1       -0.2948
      8 H         145.9204  143.6567  162.4471 H       1  UNL1        0.1235
      9 C         145.6537  141.7354  163.0884 C.3     1  UNL1        0.0956
     10 C         144.6412  140.7019  163.4844 C.ar    1  UNL1       -0.0055
     11 C         144.1486  140.6383  164.8998 C.ar    1  UNL1       -0.0020
     12 C         143.1361  139.6048  165.2958 C.ar    1  UNL1        0.0120
     13 C         142.6163  138.6350  164.2764 C.ar    1  UNL1        0.0682
     14 CL        141.6038  137.6014  164.6724 Cl      1  UNL1       -0.0814
     15 C         143.1089  138.6985  162.8611 C.ar    1  UNL1        0.0679
     16 CL        142.5891  137.7286  161.8417 Cl      1  UNL1       -0.0814
     17 C         144.1214  139.7320  162.4650 C.ar    1  UNL1        0.0093
     18 C         139.8224  145.3747  163.1074 C.3     1  UNL1        0.0047
     19 C         138.8904  144.8034  164.1346 C.3     1  UNL1        0.0265
     20 C         140.5514  142.1311  167.3516 C.ar    1  UNL1        0.1388
     21 C         140.2362  140.6646  167.3453 C.ar    1  UNL1        0.0384
     22 C         139.3673  140.0889  166.2666 C.ar    1  UNL1        0.0222
     23 C         138.8136  140.9797  165.1943 C.ar    1  UNL1        0.0812
     24 N         137.9447  140.4039  164.1156 N.ar    1  UNL1       -0.2439
     25 C         137.3910  141.2947  163.0432 C.ar    1  UNL1        0.0985
     26 C         137.7062  142.7612  163.0495 C.ar    1  UNL1        0.0164
     27 C         138.5751  143.3369  164.1282 C.ar    1  UNL1       -0.0191
     28 C         139.1288  142.4461  165.2006 C.ar    1  UNL1        0.0168
     29 C         139.9977  143.0218  166.2793 C.ar    1  UNL1        0.0381
     30 C         140.7959  143.3557  169.6299 C.3     1  UNL1        0.2525
     31 O         141.4203  142.7068  168.4303 O.3     1  UNL1       -0.4714
@<TRIPOS>BOND
     1    30    31    1
     2    31    20    1
     3    20    21   ar
     4    21    22   ar
     5    22    23   ar
     6    23    24   ar
     7    24    25   ar
     8    25    26   ar
     9    26    27   ar
    10    27    19    1
    11    19    18    1
    12     1    18    1
    13     1     2    1
    14     2     3    1
    15     3     4    1
    16     4     7    1
    17     7     9    1
    18     9    10    1
    19    10    11   ar
    20    11    12   ar
    21    12    13   ar
    22    13    14    1
    23    13    15   ar
    24    15    16    1
    25    15    17   ar
    26     4     5    1
    27     5     6    1
    28    27    28   ar
    29    28    29   ar
    30    29    20   ar
    31    28    23   ar
    32     6     1    1
    33    17    10   ar
    34     7     8    1
@<TRIPOS>MOLECULE
*****
 31 34 0 0 0
SMALL
GASTEIGER

@<TRIPOS>ATOM
      1 C         138.1489  142.4830  164.4010 C.3     1  UNL1        0.0004
      2 C         138.8618  141.6401  165.4166 C.3     1  UNL1        0.0014
      3 C         139.0372  140.1693  165.1805 C.3     1  UNL1        0.0157
      4 C         138.4998  139.5412  163.9287 C.3     1  UNL1        0.0542
      5 C         137.7869  140.3841  162.9132 C.3     1  UNL1        0.0157
      6 C         137.6114  141.8550  163.1493 C.3     1  UNL1        0.0014
      7 N         138.6752  138.0704  163.6926 N.3     1  UNL1       -0.2948
      8 H         137.8729  137.7626  163.1431 H       1  UNL1        0.1235
      9 C         139.9005  137.5644  162.9907 C.3     1  UNL1        0.0956
     10 C         141.2496  138.1159  163.3453 C.ar    1  UNL1       -0.0055
     11 C         142.0369  138.8850  162.3261 C.ar    1  UNL1       -0.0020
     12 C         143.3861  139.4365  162.6808 C.ar    1  UNL1        0.0120
     13 C         143.9478  139.2190  164.0545 C.ar    1  UNL1        0.0682
     14 CL        145.2969  139.7706  164.4091 Cl      1  UNL1       -0.0814
     15 C         143.1604  138.4500  165.0736 C.ar    1  UNL1        0.0679
     16 CL        143.7222  138.2325  166.4474 Cl      1  UNL1       -0.0814
     17 C         141.8113  137.8985  164.7190 C.ar    1  UNL1        0.0093
     18 C         137.9734  143.9538  164.6372 C.3     1  UNL1        0.0047
     19 C         139.1601  144.8696  164.5791 C.3     1  UNL1        0.0265
     20 C         143.2649  143.0289  164.6898 C.ar    1  UNL1        0.1388
     21 C         144.1322  143.0559  163.4663 C.ar    1  UNL1        0.0384
     22 C         143.6312  143.6965  162.2059 C.ar    1  UNL1        0.0222
     23 C         142.2630  144.3101  162.1689 C.ar    1  UNL1        0.0812
     24 N         141.7621  144.9506  160.9085 N.ar    1  UNL1       -0.2439
     25 C         140.3938  145.5642  160.8716 C.ar    1  UNL1        0.0985
     26 C         139.5264  145.5372  162.0951 C.ar    1  UNL1        0.0164
     27 C         140.0274  144.8966  163.3556 C.ar    1  UNL1       -0.0191
     28 C         141.3957  144.2830  163.3924 C.ar    1  UNL1        0.0168
     29 C         141.8966  143.6424  164.6529 C.ar    1  UNL1        0.0381
     30 C         142.7920  141.8910  166.9771 C.3     1  UNL1        0.2525
     31 O         143.7658  142.3883  165.9503 O.3     1  UNL1       -0.4714
@<TRIPOS>BOND
     1    30    31    1
     2    31    20    1
     3    20    21   ar
     4    21    22   ar
     5    22    23   ar
     6    23    24   ar
     7    24    25   ar
     8    25    26   ar
     9    26    27   ar
    10    27    19    1
    11    19    18    1
    12     1    18    1
    13     1     2    1
    14     2     3    1
    15     3     4    1
    16     4     7    1
    17     7     9    1
    18     9    10    1
    19    10    11   ar
    20    11    12   ar
    21    12    13   ar
    22    13    14    1
    23    13    15   ar
    24    15    16    1
    25    15    17   ar
    26     4     5    1
    27     5     6    1
    28    27    28   ar
    29    28    29   ar
    30    29    20   ar
    31    28    23   ar
    32     6     1    1
    33    17    10   ar
    34     7     8    1
@<TRIPOS>MOLECULE
*****
 31 34 0 0 0
SMALL
GASTEIGER

@<TRIPOS>ATOM
      1 C         142.5243  144.5691  163.4826 C.3     1  UNL1        0.0004
      2 C         141.2628  144.9373  164.2058 C.3     1  UNL1        0.0014
      3 C         139.9293  144.6159  163.5990 C.3     1  UNL1        0.0157
      4 C         139.8571  143.9262  162.2688 C.3     1  UNL1        0.0542
      5 C         141.1186  143.5581  161.5455 C.3     1  UNL1        0.0157
      6 C         142.4522  143.8795  162.1525 C.3     1  UNL1        0.0014
      7 N         138.5236  143.6048  161.6620 N.3     1  UNL1       -0.2948
      8 H         138.7071  143.0598  160.8196 H       1  UNL1        0.1235
      9 C         137.5021  142.8452  162.4553 C.3     1  UNL1        0.0956
     10 C         137.8875  141.5745  163.1530 C.ar    1  UNL1       -0.0055
     11 C         138.1108  141.5713  164.6363 C.ar    1  UNL1       -0.0020
     12 C         138.4963  140.3005  165.3339 C.ar    1  UNL1        0.0120
     13 C         138.6585  139.0331  164.5483 C.ar    1  UNL1        0.0682
     14 CL        139.0440  137.7623  165.2459 Cl      1  UNL1       -0.0814
     15 C         138.4352  139.0363  163.0650 C.ar    1  UNL1        0.0679
     16 CL        138.5975  137.7688  162.2794 Cl      1  UNL1       -0.0814
     17 C         138.0498  140.3070  162.3673 C.ar    1  UNL1        0.0093
     18 C         143.8579  144.8905  164.0894 C.3     1  UNL1        0.0047
     19 C         144.4635  143.9649  165.1026 C.3     1  UNL1        0.0265
     20 C         141.6326  141.4678  167.5523 C.ar    1  UNL1        0.1388
     21 C         141.5697  139.9837  167.3444 C.ar    1  UNL1        0.0384
     22 C         142.4504  139.3318  166.3200 C.ar    1  UNL1        0.0222
     23 C         143.3941  140.1641  165.5035 C.ar    1  UNL1        0.0812
     24 N         144.2748  139.5123  164.4790 N.ar    1  UNL1       -0.2439
     25 C         145.2184  140.3446  163.6625 C.ar    1  UNL1        0.0985
     26 C         145.2813  141.8289  163.8703 C.ar    1  UNL1        0.0164
     27 C         144.4006  142.4807  164.8948 C.ar    1  UNL1       -0.0191
     28 C         143.4569  141.6483  165.7113 C.ar    1  UNL1        0.0168
     29 C         142.5762  142.3001  166.7357 C.ar    1  UNL1        0.0381
     30 C         139.8045  141.2880  169.3895 C.3     1  UNL1        0.2525
     31 O         140.7519  142.1197  168.5767 O.3     1  UNL1       -0.4714
@<TRIPOS>BOND
     1    30    31    1
     2    31    20    1
     3    20    21   ar
     4    21    22   ar
     5    22    23   ar
     6    23    24   ar
     7    24    25   ar
     8    25    26   ar
     9    26    27   ar
    10    27    19    1
    11    19    18    1
    12     1    18    1
    13     1     2    1
    14     2     3    1
    15     3     4    1
    16     4     7    1
    17     7     9    1
    18     9    10    1
    19    10    11   ar
    20    11    12   ar
    21    12    13   ar
    22    13    14    1
    23    13    15   ar
    24    15    16    1
    25    15    17   ar
    26     4     5    1
    27     5     6    1
    28    27    28   ar
    29    28    29   ar
    30    29    20   ar
    31    28    23   ar
    32     6     1    1
    33    17    10   ar
    34     7     8    1
@<TRIPOS>MOLECULE
*****
 31 34 0 0 0
SMALL
GASTEIGER

@<TRIPOS>ATOM
      1 C         137.8512  142.9283  163.1898 C.3     1  UNL1        0.0004
      2 C         137.7079  141.7446  164.0999 C.3     1  UNL1        0.0014
      3 C         137.7684  140.3551  163.5381 C.3     1  UNL1        0.0157
      4 C         137.9721  140.1493  162.0663 C.3     1  UNL1        0.0542
      5 C         138.1154  141.3331  161.1563 C.3     1  UNL1        0.0157
      6 C         138.0549  142.7226  161.7181 C.3     1  UNL1        0.0014
      7 N         138.0325  138.7598  161.5045 N.3     1  UNL1       -0.2948
      8 H         137.5847  138.7927  160.5887 H       1  UNL1        0.1235
      9 C         139.3585  138.0848  161.3142 C.3     1  UNL1        0.0956
     10 C         140.4068  138.1759  162.3832 C.ar    1  UNL1       -0.0055
     11 C         140.2571  137.3864  163.6497 C.ar    1  UNL1       -0.0020
     12 C         141.3055  137.4776  164.7187 C.ar    1  UNL1        0.0120
     13 C         142.5035  138.3583  164.5211 C.ar    1  UNL1        0.0682
     14 CL        143.5519  138.4496  165.5900 Cl      1  UNL1       -0.0814
     15 C         142.6531  139.1479  163.2545 C.ar    1  UNL1        0.0679
     16 CL        143.8512  140.0287  163.0569 Cl      1  UNL1       -0.0814
     17 C         141.6048  139.0568  162.1856 C.ar    1  UNL1        0.0093
     18 C         137.7908  144.3178  163.7516 C.3     1  UNL1        0.0047
     19 C         138.8905  144.8152  164.6423 C.3     1  UNL1        0.0265
     20 C         140.9496  141.9231  167.4074 C.ar    1  UNL1        0.1388
     21 C         142.3693  141.5161  167.1450 C.ar    1  UNL1        0.0384
     22 C         143.1026  142.0731  165.9609 C.ar    1  UNL1        0.0222
     23 C         142.4162  143.0372  165.0393 C.ar    1  UNL1        0.0812
     24 N         143.1495  143.5942  163.8552 N.ar    1  UNL1       -0.2439
     25 C         142.4632  144.5582  162.9335 C.ar    1  UNL1        0.0985
     26 C         141.0434  144.9652  163.1959 C.ar    1  UNL1        0.0164
     27 C         140.3101  144.4082  164.3799 C.ar    1  UNL1       -0.0191
     28 C         140.9966  143.4442  165.3017 C.ar    1  UNL1        0.0168
     29 C         140.2633  142.8871  166.4857 C.ar    1  UNL1        0.0381
     30 C         140.0934  142.1774  169.8471 C.3     1  UNL1        0.2525
     31 O         140.2164  141.3661  168.5915 O.3     1  UNL1       -0.4714
@<TRIPOS>BOND
     1    30    31    1
     2    31    20    1
     3    20    21   ar
     4    21    22   ar
     5    22    23   ar
     6    23    24   ar
     7    24    25   ar
     8    25    26   ar
     9    26    27   ar
    10    27    19    1
    11    19    18    1
    12     1    18    1
    13     1     2    1
    14     2     3    1
    15     3     4    1
    16     4     7    1
    17     7     9    1
    18     9    10    1
    19    10    11   ar
    20    11    12   ar
    21    12    13   ar
    22    13    14    1
    23    13    15   ar
    24    15    16    1
    25    15    17   ar
    26     4     5    1
    27     5     6    1
    28    27    28   ar
    29    28    29   ar
    30    29    20   ar
    31    28    23   ar
    32     6     1    1
    33    17    10   ar
    34     7     8    1
@<TRIPOS>MOLECULE
*****
 31 34 0 0 0
SMALL
GASTEIGER

@<TRIPOS>ATOM
      1 C         139.3642  137.7954  164.5375 C.3     1  UNL1        0.0004
      2 C         140.7976  137.4530  164.8169 C.3     1  UNL1        0.0014
      3 C         141.7723  137.3237  163.6841 C.3     1  UNL1        0.0157
      4 C         141.3136  137.5367  162.2719 C.3     1  UNL1        0.0542
      5 C         139.8801  137.8790  161.9925 C.3     1  UNL1        0.0157
      6 C         138.9054  138.0084  163.1254 C.3     1  UNL1        0.0014
      7 N         142.2882  137.4073  161.1391 N.3     1  UNL1       -0.2948
      8 H         141.8677  137.8720  160.3343 H       1  UNL1        0.1235
      9 C         143.6774  137.9557  161.2787 C.3     1  UNL1        0.0956
     10 C         143.8844  139.4218  161.5184 C.ar    1  UNL1       -0.0055
     11 C         143.4087  140.4218  160.5066 C.ar    1  UNL1       -0.0020
     12 C         143.6157  141.8880  160.7465 C.ar    1  UNL1        0.0120
     13 C         144.2985  142.3542  161.9980 C.ar    1  UNL1        0.0682
     14 CL        144.5056  143.8204  162.2379 Cl      1  UNL1       -0.0814
     15 C         144.7743  141.3542  163.0098 C.ar    1  UNL1        0.0679
     16 CL        145.4571  141.8204  164.2614 Cl      1  UNL1       -0.0814
     17 C         144.5672  139.8881  162.7701 C.ar    1  UNL1        0.0093
     18 C         138.3895  137.9247  165.6703 C.3     1  UNL1        0.0047
     19 C         138.1785  139.2553  166.3299 C.3     1  UNL1        0.0265
     20 C         142.2874  140.4666  167.7081 C.ar    1  UNL1        0.1388
     21 C         142.9361  141.6953  167.1429 C.ar    1  UNL1        0.0384
     22 C         142.2152  142.5201  166.1182 C.ar    1  UNL1        0.0222
     23 C         140.8456  142.1164  165.6588 C.ar    1  UNL1        0.0812
     24 N         140.1247  142.9413  164.6342 N.ar    1  UNL1       -0.2439
     25 C         138.7551  142.5375  164.1748 C.ar    1  UNL1        0.0985
     26 C         138.1063  141.3088  164.7400 C.ar    1  UNL1        0.0164
     27 C         138.8272  140.4839  165.7647 C.ar    1  UNL1       -0.0191
     28 C         140.1969  140.8878  166.2241 C.ar    1  UNL1        0.0168
     29 C         140.9178  140.0629  167.2487 C.ar    1  UNL1        0.0381
     30 C         142.3001  139.2128  169.9835 C.3     1  UNL1        0.2525
     31 O         143.0083  139.6418  168.7328 O.3     1  UNL1       -0.4714
@<TRIPOS>BOND
     1    30    31    1
     2    31    20    1
     3    20    21   ar
     4    21    22   ar
     5    22    23   ar
     6    23    24   ar
     7    24    25   ar
     8    25    26   ar
     9    26    27   ar
    10    27    19    1
    11    19    18    1
    12     1    18    1
    13     1     2    1
    14     2     3    1
    15     3     4    1
    16     4     7    1
    17     7     9    1
    18     9    10    1
    19    10    11   ar
    20    11    12   ar
    21    12    13   ar
    22    13    14    1
    23    13    15   ar
    24    15    16    1
    25    15    17   ar
    26     4     5    1
    27     5     6    1
    28    27    28   ar
    29    28    29   ar
    30    29    20   ar
    31    28    23   ar
    32     6     1    1
    33    17    10   ar
    34     7     8    1
@<TRIPOS>MOLECULE
*****
 31 34 0 0 0
SMALL
GASTEIGER

@<TRIPOS>ATOM
      1 C         144.1446  143.2274  162.7496 C.3     1  UNL1        0.0004
      2 C         143.5119  142.6133  161.5360 C.3     1  UNL1        0.0014
      3 C         143.6650  141.1447  161.2722 C.3     1  UNL1        0.0157
      4 C         144.4509  140.2900  162.2220 C.3     1  UNL1        0.0542
      5 C         145.0836  140.9041  163.4355 C.3     1  UNL1        0.0157
      6 C         144.9304  142.3728  163.6993 C.3     1  UNL1        0.0014
      7 N         144.6041  138.8214  161.9582 N.3     1  UNL1       -0.2948
      8 H         145.0231  138.4142  162.7943 H       1  UNL1        0.1235
      9 C         143.4006  137.9892  161.6277 C.3     1  UNL1        0.0956
     10 C         142.2176  137.9820  162.5499 C.ar    1  UNL1       -0.0055
     11 C         142.4236  138.0394  164.0346 C.ar    1  UNL1       -0.0020
     12 C         141.2405  138.0321  164.9567 C.ar    1  UNL1        0.0120
     13 C         139.8515  137.9674  164.3942 C.ar    1  UNL1        0.0682
     14 CL        138.6684  137.9601  165.3163 Cl      1  UNL1       -0.0814
     15 C         139.6455  137.9100  162.9095 C.ar    1  UNL1        0.0679
     16 CL        138.2565  137.8452  162.3470 Cl      1  UNL1       -0.0814
     17 C         140.8285  137.9172  161.9874 C.ar    1  UNL1        0.0093
     18 C         143.9914  144.6960  163.0133 C.3     1  UNL1        0.0047
     19 C         142.9099  145.1845  163.9308 C.3     1  UNL1        0.0265
     20 C         140.9502  141.7794  166.1253 C.ar    1  UNL1        0.1388
     21 C         139.5175  141.4334  165.8468 C.ar    1  UNL1        0.0384
     22 C         138.7380  142.2223  164.8368 C.ar    1  UNL1        0.0222
     23 C         139.3912  143.3573  164.1054 C.ar    1  UNL1        0.0812
     24 N         138.6117  144.1462  163.0954 N.ar    1  UNL1       -0.2439
     25 C         139.2649  145.2812  162.3639 C.ar    1  UNL1        0.0985
     26 C         140.6977  145.6273  162.6424 C.ar    1  UNL1        0.0164
     27 C         141.4772  144.8384  163.6523 C.ar    1  UNL1       -0.0191
     28 C         140.8239  143.7033  164.3838 C.ar    1  UNL1        0.0168
     29 C         141.6034  142.9144  165.3938 C.ar    1  UNL1        0.0381
     30 C         141.0155  140.0777  168.0873 C.3     1  UNL1        0.2525
     31 O         141.7297  140.9905  167.1352 O.3     1  UNL1       -0.4714
@<TRIPOS>BOND
     1    30    31    1
     2    31    20    1
     3    20    21   ar
     4    21    22   ar
     5    22    23   ar
     6    23    24   ar
     7    24    25   ar
     8    25    26   ar
     9    26    27   ar
    10    27    19    1
    11    19    18    1
    12     1    18    1
    13     1     2    1
    14     2     3    1
    15     3     4    1
    16     4     7    1
    17     7     9    1
    18     9    10    1
    19    10    11   ar
    20    11    12   ar
    21    12    13   ar
    22    13    14    1
    23    13    15   ar
    24    15    16    1
    25    15    17   ar
    26     4     5    1
    27     5     6    1
    28    27    28   ar
    29    28    29   ar
    30    29    20   ar
    31    28    23   ar
    32     6     1    1
    33    17    10   ar
    34     7     8    1
@<TRIPOS>MOLECULE
*****
 31 34 0 0 0
SMALL
GASTEIGER

@<TRIPOS>ATOM
      1 C         139.4650  137.6861  164.5011 C.3     1  UNL1        0.0004
      2 C         140.9452  137.5844  164.7221 C.3     1  UNL1        0.0014
      3 C         141.8836  137.6404  163.5533 C.3     1  UNL1        0.0157
      4 C         141.3419  137.7979  162.1634 C.3     1  UNL1        0.0542
      5 C         139.8618  137.8996  161.9423 C.3     1  UNL1        0.0157
      6 C         138.9233  137.8436  163.1112 C.3     1  UNL1        0.0014
      7 N         142.2803  137.8539  160.9946 N.3     1  UNL1       -0.2948
      8 H         141.8588  137.2965  160.2516 H       1  UNL1        0.1235
      9 C         142.6463  139.1766  160.3891 C.3     1  UNL1        0.0956
     10 C         142.9672  140.3437  161.2749 C.ar    1  UNL1       -0.0055
     11 C         141.9900  141.4737  161.4100 C.ar    1  UNL1       -0.0020
     12 C         142.3110  142.6410  162.2958 C.ar    1  UNL1        0.0120
     13 C         143.6091  142.6782  163.0465 C.ar    1  UNL1        0.0682
     14 CL        143.9301  143.8454  163.9323 Cl      1  UNL1       -0.0814
     15 C         144.5863  141.5482  162.9114 C.ar    1  UNL1        0.0679
     16 CL        145.8845  141.5854  163.6620 Cl      1  UNL1       -0.0814
     17 C         144.2654  140.3810  162.0256 C.ar    1  UNL1        0.0093
     18 C         138.5266  137.6301  165.6699 C.3     1  UNL1        0.0047
     19 C         137.9928  138.8996  166.2646 C.3     1  UNL1        0.0265
     20 C         138.3794  142.4986  163.5911 C.ar    1  UNL1        0.1388
     21 C         139.3197  143.6081  163.9583 C.ar    1  UNL1        0.0384
     22 C         140.1310  143.5180  165.2167 C.ar    1  UNL1        0.0222
     23 C         140.0022  142.3183  166.1079 C.ar    1  UNL1        0.0812
     24 N         140.8135  142.2282  167.3662 N.ar    1  UNL1       -0.2439
     25 C         140.6847  141.0286  168.2574 C.ar    1  UNL1        0.0985
     26 C         139.7444  139.9190  167.8902 C.ar    1  UNL1        0.0164
     27 C         138.9330  140.0091  166.6318 C.ar    1  UNL1       -0.0191
     28 C         139.0619  141.2088  165.7406 C.ar    1  UNL1        0.0168
     29 C         138.2506  141.2989  164.4822 C.ar    1  UNL1        0.0381
     30 C         138.2243  142.3780  161.0004 C.3     1  UNL1        0.2525
     31 O         137.5681  142.5887  162.3327 O.3     1  UNL1       -0.4714
@<TRIPOS>BOND
     1    30    31    1
     2    31    20    1
     3    20    21   ar
     4    21    22   ar
     5    22    23   ar
     6    23    24   ar
     7    24    25   ar
     8    25    26   ar
     9    26    27   ar
    10    27    19    1
    11    19    18    1
    12     1    18    1
    13     1     2    1
    14     2     3    1
    15     3     4    1
    16     4     7    1
    17     7     9    1
    18     9    10    1
    19    10    11   ar
    20    11    12   ar
    21    12    13   ar
    22    13    14    1
    23    13    15   ar
    24    15    16    1
    25    15    17   ar
    26     4     5    1
    27     5     6    1
    28    27    28   ar
    29    28    29   ar
    30    29    20   ar
    31    28    23   ar
    32     6     1    1
    33    17    10   ar
    34     7     8    1
@<TRIPOS>MOLECULE
*****
 31 34 0 0 0
SMALL
GASTEIGER

@<TRIPOS>ATOM
      1 C         142.9559  141.4018  165.7607 C.3     1  UNL1        0.0004
      2 C         143.3825  139.9756  165.9456 C.3     1  UNL1        0.0014
      3 C         143.8888  139.1865  164.7748 C.3     1  UNL1        0.0157
      4 C         143.9685  139.8234  163.4190 C.3     1  UNL1        0.0542
      5 C         143.5419  141.2496  163.2342 C.3     1  UNL1        0.0157
      6 C         143.0356  142.0387  164.4051 C.3     1  UNL1        0.0014
      7 N         144.4748  139.0343  162.2482 N.3     1  UNL1       -0.2948
      8 H         145.3724  138.6376  162.5265 H       1  UNL1        0.1235
      9 C         143.6562  137.9063  161.6936 C.3     1  UNL1        0.0956
     10 C         142.1585  137.9868  161.7122 C.ar    1  UNL1       -0.0055
     11 C         141.3955  137.4905  162.9045 C.ar    1  UNL1       -0.0020
     12 C         139.8978  137.5710  162.9231 C.ar    1  UNL1        0.0120
     13 C         139.1630  138.1477  161.7494 C.ar    1  UNL1        0.0682
     14 CL        137.6653  138.2281  161.7680 Cl      1  UNL1       -0.0814
     15 C         139.9260  138.6439  160.5571 C.ar    1  UNL1        0.0679
     16 CL        139.1912  139.2207  159.3834 Cl      1  UNL1       -0.0814
     17 C         141.4237  138.5635  160.5385 C.ar    1  UNL1        0.0093
     18 C         142.4496  142.1909  166.9315 C.3     1  UNL1        0.0047
     19 C         140.9795  142.4475  167.0837 C.3     1  UNL1        0.0265
     20 C         138.7168  143.7204  163.4082 C.ar    1  UNL1        0.1388
     21 C         137.7238  142.7890  162.7787 C.ar    1  UNL1        0.0384
     22 C         137.4849  141.4332  163.3745 C.ar    1  UNL1        0.0222
     23 C         138.2391  141.0089  164.5996 C.ar    1  UNL1        0.0812
     24 N         138.0003  139.6532  165.1954 N.ar    1  UNL1       -0.2439
     25 C         138.7545  139.2289  166.4206 C.ar    1  UNL1        0.0985
     26 C         139.7476  140.1603  167.0501 C.ar    1  UNL1        0.0164
     27 C         139.9864  141.5161  166.4543 C.ar    1  UNL1       -0.0191
     28 C         139.2322  141.9404  165.2291 C.ar    1  UNL1        0.0168
     29 C         139.4710  143.2961  164.6333 C.ar    1  UNL1        0.0381
     30 C         140.3533  145.5228  162.5007 C.3     1  UNL1        0.2525
     31 O         138.9557  145.0761  162.8124 O.3     1  UNL1       -0.4714
@<TRIPOS>BOND
     1    30    31    1
     2    31    20    1
     3    20    21   ar
     4    21    22   ar
     5    22    23   ar
     6    23    24   ar
     7    24    25   ar
     8    25    26   ar
     9    26    27   ar
    10    27    19    1
    11    19    18    1
    12     1    18    1
    13     1     2    1
    14     2     3    1
    15     3     4    1
    16     4     7    1
    17     7     9    1
    18     9    10    1
    19    10    11   ar
    20    11    12   ar
    21    12    13   ar
    22    13    14    1
    23    13    15   ar
    24    15    16    1
    25    15    17   ar
    26     4     5    1
    27     5     6    1
    28    27    28   ar
    29    28    29   ar
    30    29    20   ar
    31    28    23   ar
    32     6     1    1
    33    17    10   ar
    34     7     8    1
@<TRIPOS>MOLECULE
*****
 31 34 0 0 0
SMALL
GASTEIGER

@<TRIPOS>ATOM
      1 C         138.4532  139.4343  164.0354 C.3     1  UNL1        0.0004
      2 C         138.2903  139.6317  162.5574 C.3     1  UNL1        0.0014
      3 C         137.9367  140.9851  162.0160 C.3     1  UNL1        0.0157
      4 C         137.7459  142.1412  162.9525 C.3     1  UNL1        0.0542
      5 C         137.9087  141.9438  164.4306 C.3     1  UNL1        0.0157
      6 C         138.2624  140.5903  164.9720 C.3     1  UNL1        0.0014
      7 N         137.3922  143.4946  162.4111 N.3     1  UNL1       -0.2948
      8 H         136.4420  143.6969  162.7218 H       1  UNL1        0.1235
      9 C         138.2281  144.6875  162.7692 C.3     1  UNL1        0.0956
     10 C         139.7245  144.5955  162.7243 C.ar    1  UNL1       -0.0055
     11 C         140.5310  144.8841  163.9558 C.ar    1  UNL1       -0.0020
     12 C         142.0275  144.7921  163.9108 C.ar    1  UNL1        0.0120
     13 C         142.7176  144.4115  162.6345 C.ar    1  UNL1        0.0682
     14 CL        144.2141  144.3195  162.5896 Cl      1  UNL1       -0.0814
     15 C         141.9111  144.1229  161.4031 C.ar    1  UNL1        0.0679
     16 CL        142.6012  143.7423  160.1268 Cl      1  UNL1       -0.0814
     17 C         140.4147  144.2149  161.4480 C.ar    1  UNL1        0.0093
     18 C         138.8069  138.0809  164.5769 C.3     1  UNL1        0.0047
     19 C         140.2120  137.7924  165.0157 C.3     1  UNL1        0.0265
     20 C         142.5246  141.4129  166.3549 C.ar    1  UNL1        0.1388
     21 C         143.6818  141.9077  165.5388 C.ar    1  UNL1        0.0384
     22 C         144.0681  141.1958  164.2763 C.ar    1  UNL1        0.0222
     23 C         143.2972  139.9890  163.8299 C.ar    1  UNL1        0.0812
     24 N         143.6835  139.2771  162.5674 N.ar    1  UNL1       -0.2439
     25 C         142.9126  138.0703  162.1210 C.ar    1  UNL1        0.0985
     26 C         141.7554  137.5753  162.9371 C.ar    1  UNL1        0.0164
     27 C         141.3691  138.2873  164.1996 C.ar    1  UNL1       -0.0191
     28 C         142.1401  139.4941  164.6460 C.ar    1  UNL1        0.0168
     29 C         141.7538  140.2061  165.9085 C.ar    1  UNL1        0.0381
     30 C         143.1077  142.2061  168.7593 C.3     1  UNL1        0.2525
     31 O         142.1384  142.1248  167.6174 O.3     1  UNL1       -0.4714
@<TRIPOS>BOND
     1    30    31    1
     2    31    20    1
     3    20    21   ar
     4    21    22   ar
     5    22    23   ar
     6    23    24   ar
     7    24    25   ar
     8    25    26   ar
     9    26    27   ar
    10    27    19    1
    11    19    18    1
    12     1    18    1
    13     1     2    1
    14     2     3    1
    15     3     4    1
    16     4     7    1
    17     7     9    1
    18     9    10    1
    19    10    11   ar
    20    11    12   ar
    21    12    13   ar
    22    13    14    1
    23    13    15   ar
    24    15    16    1
    25    15    17   ar
    26     4     5    1
    27     5     6    1
    28    27    28   ar
    29    28    29   ar
    30    29    20   ar
    31    28    23   ar
    32     6     1    1
    33    17    10   ar
    34     7     8    1
