@<TRIPOS>MOLECULE
*****
 31 33 0 0 0
SMALL
GASTEIGER

@<TRIPOS>ATOM
      1 O         143.2490  139.0577  166.1781 O.2     1  UNL1       -0.2732
      2 C         141.9730  138.9341  165.3993 C.2     1  UNL1        0.2430
      3 N         140.9917  140.0685  165.3826 N.am    1  UNL1       -0.2972
      4 H         140.1543  139.9873  164.8714 H       1  UNL1        0.1500
      5 C         141.6783  137.6762  164.6373 C.3     1  UNL1        0.1759
      6 N         141.8829  137.6338  163.1519 N.am    1  UNL1       -0.2931
      7 C         140.8879  138.2864  162.2387 C.2     1  UNL1        0.2462
      8 O         139.6881  138.9815  162.8109 O.2     1  UNL1       -0.2701
      9 H         142.6704  137.1775  162.7763 H       1  UNL1        0.1502
     10 C         141.0925  138.2440  160.7533 C.ar    1  UNL1        0.0535
     11 C         142.4475  137.9304  160.1916 C.ar    1  UNL1        0.0068
     12 C         142.6521  137.8879  158.7062 C.ar    1  UNL1        0.0298
     13 C         141.5017  138.1591  157.7826 C.ar    1  UNL1        0.1401
     14 F         141.7064  138.1166  156.2972 F       1  UNL1       -0.2042
     15 C         140.1467  138.4726  158.3444 C.ar    1  UNL1        0.0298
     16 C         139.9421  138.5151  159.8297 C.ar    1  UNL1        0.0068
     17 C         141.2864  141.3265  166.1446 C.3     1  UNL1        0.1171
     18 C         142.1472  142.3907  165.5312 C.ar    1  UNL1        0.0019
     19 C         143.6136  142.4411  165.8425 C.ar    1  UNL1       -0.0022
     20 C         144.4745  143.5054  165.2290 C.ar    1  UNL1        0.0020
     21 C         143.8688  144.5193  164.3043 C.ar    1  UNL1        0.0296
     22 C         142.4023  144.4689  163.9930 C.ar    1  UNL1        0.1399
     23 F         141.7966  145.4828  163.0682 F       1  UNL1       -0.2042
     24 C         141.5415  143.4046  164.6064 C.ar    1  UNL1        0.0273
     25 C         140.7203  141.5201  167.5202 C.ar    1  UNL1        0.0019
     26 C         140.0768  140.3691  168.2352 C.ar    1  UNL1       -0.0022
     27 C         139.5107  140.5628  169.6107 C.ar    1  UNL1        0.0020
     28 C         139.5881  141.9074  170.2712 C.ar    1  UNL1        0.0296
     29 C         140.2317  143.0582  169.5561 C.ar    1  UNL1        0.1399
     30 F         140.3091  144.4027  170.2166 F       1  UNL1       -0.2042
     31 C         140.7978  142.8646  168.1806 C.ar    1  UNL1        0.0273
@<TRIPOS>BOND
     1     1     2    2
     2     2     5    1
     3     5     6    1
     4     6     7   am
     5     7     8    2
     6     7    10    1
     7    10    11   ar
     8    11    12   ar
     9    12    13   ar
    10    13    14    1
    11    13    15   ar
    12    15    16   ar
    13     2     3   am
    14     3    17    1
    15    17    18    1
    16    18    19   ar
    17    19    20   ar
    18    20    21   ar
    19    21    22   ar
    20    22    23    1
    21    22    24   ar
    22    17    25    1
    23    25    26   ar
    24    26    27   ar
    25    27    28   ar
    26    28    29   ar
    27    29    30    1
    28    29    31   ar
    29    16    10   ar
    30    24    18   ar
    31    31    25   ar
    32     6     9    1
    33     3     4    1
@<TRIPOS>MOLECULE
*****
 31 33 0 0 0
SMALL
GASTEIGER

@<TRIPOS>ATOM
      1 O         137.9868  142.4737  164.6540 O.2     1  UNL1       -0.2732
      2 C         139.3187  143.0618  164.2934 C.2     1  UNL1        0.2430
      3 N         140.5754  142.4846  164.8741 N.am    1  UNL1       -0.2972
      4 H         141.4496  142.8706  164.6375 H       1  UNL1        0.1500
      5 C         139.3939  144.2272  163.3520 C.3     1  UNL1        0.1759
      6 N         140.1087  144.0872  162.0407 N.am    1  UNL1       -0.2931
      7 C         140.0358  145.1889  161.0254 C.2     1  UNL1        0.2462
      8 O         139.2482  146.4307  161.3214 O.2     1  UNL1       -0.2701
      9 H         140.6256  143.2722  161.8464 H       1  UNL1        0.1502
     10 C         140.7506  145.0489  159.7141 C.ar    1  UNL1        0.0535
     11 C         140.3249  145.8741  158.5360 C.ar    1  UNL1        0.0068
     12 C         141.0397  145.7341  157.2248 C.ar    1  UNL1        0.0298
     13 C         142.1801  144.7689  157.0915 C.ar    1  UNL1        0.1401
     14 F         142.8949  144.6289  155.7802 F       1  UNL1       -0.2042
     15 C         142.6058  143.9437  158.2696 C.ar    1  UNL1        0.0298
     16 C         141.8910  144.0837  159.5808 C.ar    1  UNL1        0.0068
     17 C         140.5003  141.3191  165.8155 C.3     1  UNL1        0.1171
     18 C         140.2585  141.5505  167.2777 C.ar    1  UNL1        0.0019
     19 C         139.6910  140.4521  168.1270 C.ar    1  UNL1       -0.0022
     20 C         139.4493  140.6834  169.5893 C.ar    1  UNL1        0.0020
     21 C         139.7751  142.0132  170.2021 C.ar    1  UNL1        0.0296
     22 C         140.3426  143.1116  169.3527 C.ar    1  UNL1        0.1399
     23 F         140.6684  144.4414  169.9656 F       1  UNL1       -0.2042
     24 C         140.5844  142.8802  167.8906 C.ar    1  UNL1        0.0273
     25 C         140.6669  139.9224  165.2947 C.ar    1  UNL1        0.0019
     26 C         141.9553  139.1873  165.5180 C.ar    1  UNL1       -0.0022
     27 C         142.1218  137.7905  164.9972 C.ar    1  UNL1        0.0020
     28 C         141.0000  137.1288  164.2530 C.ar    1  UNL1        0.0296
     29 C         139.7117  137.8639  164.0297 C.ar    1  UNL1        0.1399
     30 F         138.5900  137.2022  163.2855 F       1  UNL1       -0.2042
     31 C         139.5451  139.2607  164.5505 C.ar    1  UNL1        0.0273
@<TRIPOS>BOND
     1     1     2    2
     2     2     5    1
     3     5     6    1
     4     6     7   am
     5     7     8    2
     6     7    10    1
     7    10    11   ar
     8    11    12   ar
     9    12    13   ar
    10    13    14    1
    11    13    15   ar
    12    15    16   ar
    13     2     3   am
    14     3    17    1
    15    17    18    1
    16    18    19   ar
    17    19    20   ar
    18    20    21   ar
    19    21    22   ar
    20    22    23    1
    21    22    24   ar
    22    17    25    1
    23    25    26   ar
    24    26    27   ar
    25    27    28   ar
    26    28    29   ar
    27    29    30    1
    28    29    31   ar
    29    16    10   ar
    30    24    18   ar
    31    31    25   ar
    32     6     9    1
    33     3     4    1
@<TRIPOS>MOLECULE
*****
 31 33 0 0 0
SMALL
GASTEIGER

@<TRIPOS>ATOM
      1 O         144.4613  143.3362  164.9148 O.2     1  UNL1       -0.2732
      2 C         143.1664  143.8327  164.3431 C.2     1  UNL1        0.2430
      3 N         141.8712  143.2027  164.7619 N.am    1  UNL1       -0.2972
      4 H         141.0214  143.5286  164.3867 H       1  UNL1        0.1500
      5 C         143.1668  144.9592  163.3527 C.3     1  UNL1        0.1759
      6 N         142.6737  144.7291  161.9549 N.am    1  UNL1       -0.2931
      7 C         141.2056  144.8010  161.6561 C.2     1  UNL1        0.2462
      8 O         140.2304  145.1030  162.7551 O.2     1  UNL1       -0.2701
      9 H         143.3137  144.5309  161.2335 H       1  UNL1        0.1502
     10 C         140.7125  144.5708  160.2582 C.ar    1  UNL1        0.0535
     11 C         141.1727  145.4635  159.1441 C.ar    1  UNL1        0.0068
     12 C         140.6797  145.2333  157.7463 C.ar    1  UNL1        0.0298
     13 C         139.7263  144.1105  157.4626 C.ar    1  UNL1        0.1401
     14 F         139.2332  143.8804  156.0647 F       1  UNL1       -0.2042
     15 C         139.2661  143.2179  158.5767 C.ar    1  UNL1        0.0298
     16 C         139.7591  143.4480  159.9745 C.ar    1  UNL1        0.0068
     17 C         141.8708  142.0761  165.7523 C.3     1  UNL1        0.1171
     18 C         141.8091  140.6561  165.2730 C.ar    1  UNL1        0.0019
     19 C         142.9896  140.0481  164.5754 C.ar    1  UNL1       -0.0022
     20 C         142.9279  138.6280  164.0960 C.ar    1  UNL1        0.0020
     21 C         141.6858  137.8161  164.3144 C.ar    1  UNL1        0.0296
     22 C         140.5052  138.4241  165.0121 C.ar    1  UNL1        0.1399
     23 F         139.2631  137.6122  165.2305 F       1  UNL1       -0.2042
     24 C         140.5670  139.8441  165.4914 C.ar    1  UNL1        0.0273
     25 C         141.9322  142.3696  167.2221 C.ar    1  UNL1        0.0019
     26 C         140.6933  142.7919  167.9549 C.ar    1  UNL1       -0.0022
     27 C         140.7547  143.0854  169.4246 C.ar    1  UNL1        0.0020
     28 C         142.0549  142.9566  170.1615 C.ar    1  UNL1        0.0296
     29 C         143.2936  142.5343  169.4287 C.ar    1  UNL1        0.1399
     30 F         144.5937  142.4055  170.1656 F       1  UNL1       -0.2042
     31 C         143.2323  142.2408  167.9590 C.ar    1  UNL1        0.0273
@<TRIPOS>BOND
     1     1     2    2
     2     2     5    1
     3     5     6    1
     4     6     7   am
     5     7     8    2
     6     7    10    1
     7    10    11   ar
     8    11    12   ar
     9    12    13   ar
    10    13    14    1
    11    13    15   ar
    12    15    16   ar
    13     2     3   am
    14     3    17    1
    15    17    18    1
    16    18    19   ar
    17    19    20   ar
    18    20    21   ar
    19    21    22   ar
    20    22    23    1
    21    22    24   ar
    22    17    25    1
    23    25    26   ar
    24    26    27   ar
    25    27    28   ar
    26    28    29   ar
    27    29    30    1
    28    29    31   ar
    29    16    10   ar
    30    24    18   ar
    31    31    25   ar
    32     6     9    1
    33     3     4    1
@<TRIPOS>MOLECULE
*****
 31 33 0 0 0
SMALL
GASTEIGER

@<TRIPOS>ATOM
      1 O         139.5842  144.2558  165.1951 O.2     1  UNL1       -0.2732
      2 C         140.9018  144.0190  164.5184 C.2     1  UNL1        0.2430
      3 N         141.7728  142.8771  164.9515 N.am    1  UNL1       -0.2972
      4 H         142.6376  142.7217  164.5074 H       1  UNL1        0.1500
      5 C         141.3485  144.9240  163.4088 C.3     1  UNL1        0.1759
      6 N         141.2278  144.4772  161.9819 N.am    1  UNL1       -0.2931
      7 C         140.1357  145.0276  161.1135 C.2     1  UNL1        0.2462
      8 O         139.1642  146.0248  161.6718 O.2     1  UNL1       -0.2701
      9 H         141.8655  143.8227  161.6155 H       1  UNL1        0.1502
     10 C         140.0151  144.5808  159.6866 C.ar    1  UNL1        0.0535
     11 C         139.4592  143.2241  159.3700 C.ar    1  UNL1        0.0068
     12 C         139.3386  142.7773  157.9432 C.ar    1  UNL1        0.0298
     13 C         139.7739  143.6872  156.8330 C.ar    1  UNL1        0.1401
     14 F         139.6532  143.2404  155.4061 F       1  UNL1       -0.2042
     15 C         140.3298  145.0439  157.1496 C.ar    1  UNL1        0.0298
     16 C         140.4504  145.4907  158.5764 C.ar    1  UNL1        0.0068
     17 C         141.3262  141.9720  166.0611 C.3     1  UNL1        0.1171
     18 C         141.6236  142.3304  167.4870 C.ar    1  UNL1        0.0019
     19 C         140.5329  142.8590  168.3706 C.ar    1  UNL1       -0.0022
     20 C         140.8303  143.2174  169.7965 C.ar    1  UNL1        0.0020
     21 C         142.2185  143.0471  170.3387 C.ar    1  UNL1        0.0296
     22 C         143.3092  142.5184  169.4550 C.ar    1  UNL1        0.1399
     23 F         144.6974  142.3481  169.9973 F       1  UNL1       -0.2042
     24 C         143.0118  142.1601  168.0292 C.ar    1  UNL1        0.0273
     25 C         140.5821  140.7086  165.7449 C.ar    1  UNL1        0.0019
     26 C         139.0823  140.6945  165.7722 C.ar    1  UNL1       -0.0022
     27 C         138.3383  139.4311  165.4560 C.ar    1  UNL1        0.0020
     28 C         139.0939  138.1816  165.1124 C.ar    1  UNL1        0.0296
     29 C         140.5936  138.1957  165.0852 C.ar    1  UNL1        0.1399
     30 F         141.3491  136.9463  164.7417 F       1  UNL1       -0.2042
     31 C         141.3377  139.4591  165.4014 C.ar    1  UNL1        0.0273
@<TRIPOS>BOND
     1     1     2    2
     2     2     5    1
     3     5     6    1
     4     6     7   am
     5     7     8    2
     6     7    10    1
     7    10    11   ar
     8    11    12   ar
     9    12    13   ar
    10    13    14    1
    11    13    15   ar
    12    15    16   ar
    13     2     3   am
    14     3    17    1
    15    17    18    1
    16    18    19   ar
    17    19    20   ar
    18    20    21   ar
    19    21    22   ar
    20    22    23    1
    21    22    24   ar
    22    17    25    1
    23    25    26   ar
    24    26    27   ar
    25    27    28   ar
    26    28    29   ar
    27    29    30    1
    28    29    31   ar
    29    16    10   ar
    30    24    18   ar
    31    31    25   ar
    32     6     9    1
    33     3     4    1
@<TRIPOS>MOLECULE
*****
 31 33 0 0 0
SMALL
GASTEIGER

@<TRIPOS>ATOM
      1 O         139.7811  144.6085  164.9283 O.2     1  UNL1       -0.2732
      2 C         141.1421  144.3300  164.3624 C.2     1  UNL1        0.2430
      3 N         141.9229  143.1406  164.8373 N.am    1  UNL1       -0.2972
      4 H         142.8161  142.9579  164.4659 H       1  UNL1        0.1500
      5 C         141.7222  145.2410  163.3215 C.3     1  UNL1        0.1759
      6 N         141.6665  144.8562  161.8727 N.am    1  UNL1       -0.2931
      7 C         140.4902  145.2600  161.0342 C.2     1  UNL1        0.2462
      8 O         139.3696  146.0487  161.6443 O.2     1  UNL1       -0.2701
      9 H         142.4019  144.3385  161.4723 H       1  UNL1        0.1502
     10 C         140.4344  144.8751  159.5854 C.ar    1  UNL1        0.0535
     11 C         139.6390  143.6776  159.1576 C.ar    1  UNL1        0.0068
     12 C         139.5832  143.2928  157.7089 C.ar    1  UNL1        0.0298
     13 C         140.3230  144.1056  156.6880 C.ar    1  UNL1        0.1401
     14 F         140.2672  143.7207  155.2392 F       1  UNL1       -0.2042
     15 C         141.1184  145.3031  157.1158 C.ar    1  UNL1        0.0298
     16 C         141.1741  145.6879  158.5645 C.ar    1  UNL1        0.0068
     17 C         141.3427  142.2295  165.8782 C.3     1  UNL1        0.1171
     18 C         140.5137  141.0499  165.4645 C.ar    1  UNL1        0.0019
     19 C         139.0589  141.2302  165.1464 C.ar    1  UNL1       -0.0022
     20 C         138.2298  140.0506  164.7327 C.ar    1  UNL1        0.0020
     21 C         138.8555  138.6907  164.6371 C.ar    1  UNL1        0.0296
     22 C         140.3103  138.5104  164.9552 C.ar    1  UNL1        0.1399
     23 F         140.9360  137.1505  164.8596 F       1  UNL1       -0.2042
     24 C         141.1394  139.6900  165.3689 C.ar    1  UNL1        0.0273
     25 C         141.5916  142.4981  167.3328 C.ar    1  UNL1        0.0019
     26 C         140.4837  143.0190  168.1996 C.ar    1  UNL1       -0.0022
     27 C         140.7326  143.2877  169.6542 C.ar    1  UNL1        0.0020
     28 C         142.0895  143.0354  170.2421 C.ar    1  UNL1        0.0296
     29 C         143.1973  142.5145  169.3753 C.ar    1  UNL1        0.1399
     30 F         144.5540  142.2622  169.9631 F       1  UNL1       -0.2042
     31 C         142.9484  142.2459  167.9207 C.ar    1  UNL1        0.0273
@<TRIPOS>BOND
     1     1     2    2
     2     2     5    1
     3     5     6    1
     4     6     7   am
     5     7     8    2
     6     7    10    1
     7    10    11   ar
     8    11    12   ar
     9    12    13   ar
    10    13    14    1
    11    13    15   ar
    12    15    16   ar
    13     2     3   am
    14     3    17    1
    15    17    18    1
    16    18    19   ar
    17    19    20   ar
    18    20    21   ar
    19    21    22   ar
    20    22    23    1
    21    22    24   ar
    22    17    25    1
    23    25    26   ar
    24    26    27   ar
    25    27    28   ar
    26    28    29   ar
    27    29    30    1
    28    29    31   ar
    29    16    10   ar
    30    24    18   ar
    31    31    25   ar
    32     6     9    1
    33     3     4    1
@<TRIPOS>MOLECULE
*****
 31 33 0 0 0
SMALL
GASTEIGER

@<TRIPOS>ATOM
      1 O         143.1322  139.0615  166.2918 O.2     1  UNL1       -0.2732
      2 C         141.8654  138.9770  165.4929 C.2     1  UNL1        0.2430
      3 N         140.9253  140.1451  165.4518 N.am    1  UNL1       -0.2972
      4 H         140.0939  140.0897  164.9275 H       1  UNL1        0.1500
      5 C         141.5388  137.7245  164.7350 C.3     1  UNL1        0.1759
      6 N         141.1137  137.8062  163.2988 N.am    1  UNL1       -0.2931
      7 C         142.1323  138.0656  162.2287 C.2     1  UNL1        0.2462
      8 O         143.5760  138.2433  162.5947 O.2     1  UNL1       -0.2701
      9 H         140.1661  137.6896  163.0585 H       1  UNL1        0.1502
     10 C         141.7071  138.1473  160.7924 C.ar    1  UNL1        0.0535
     11 C         142.7065  137.9086  159.6997 C.ar    1  UNL1        0.0068
     12 C         142.2813  137.9903  158.2636 C.ar    1  UNL1        0.0298
     13 C         140.8568  138.3107  157.9202 C.ar    1  UNL1        0.1401
     14 F         140.4316  138.3924  156.4840 F       1  UNL1       -0.2042
     15 C         139.8574  138.5494  159.0129 C.ar    1  UNL1        0.0298
     16 C         140.2825  138.4677  160.4491 C.ar    1  UNL1        0.0068
     17 C         141.2519  141.3977  166.2098 C.3     1  UNL1        0.1171
     18 C         140.7010  141.6047  167.5895 C.ar    1  UNL1        0.0019
     19 C         140.0926  140.4537  168.3345 C.ar    1  UNL1       -0.0022
     20 C         139.5418  140.6606  169.7143 C.ar    1  UNL1        0.0020
     21 C         139.5993  142.0185  170.3490 C.ar    1  UNL1        0.0296
     22 C         140.2078  143.1694  169.6040 C.ar    1  UNL1        0.1399
     23 F         140.2654  144.5273  170.2387 F       1  UNL1       -0.2042
     24 C         140.7586  142.9625  168.2242 C.ar    1  UNL1        0.0273
     25 C         142.1293  142.4434  165.5879 C.ar    1  UNL1        0.0019
     26 C         143.5914  142.4900  165.9200 C.ar    1  UNL1       -0.0022
     27 C         144.4688  143.5356  165.2981 C.ar    1  UNL1        0.0020
     28 C         143.8841  144.5347  164.3441 C.ar    1  UNL1        0.0296
     29 C         142.4221  144.4880  164.0119 C.ar    1  UNL1        0.1399
     30 F         141.8376  145.4870  163.0579 F       1  UNL1       -0.2042
     31 C         141.5447  143.4424  164.6338 C.ar    1  UNL1        0.0273
@<TRIPOS>BOND
     1     1     2    2
     2     2     5    1
     3     5     6    1
     4     6     7   am
     5     7     8    2
     6     7    10    1
     7    10    11   ar
     8    11    12   ar
     9    12    13   ar
    10    13    14    1
    11    13    15   ar
    12    15    16   ar
    13     2     3   am
    14     3    17    1
    15    17    18    1
    16    18    19   ar
    17    19    20   ar
    18    20    21   ar
    19    21    22   ar
    20    22    23    1
    21    22    24   ar
    22    17    25    1
    23    25    26   ar
    24    26    27   ar
    25    27    28   ar
    26    28    29   ar
    27    29    30    1
    28    29    31   ar
    29    16    10   ar
    30    24    18   ar
    31    31    25   ar
    32     6     9    1
    33     3     4    1
@<TRIPOS>MOLECULE
*****
 31 33 0 0 0
SMALL
GASTEIGER

@<TRIPOS>ATOM
      1 O         144.4086  142.7841  165.0852 O.2     1  UNL1       -0.2732
      2 C         144.2743  141.3997  164.5235 C.2     1  UNL1        0.2430
      3 N         143.1577  140.5093  164.9821 N.am    1  UNL1       -0.2972
      4 H         143.0696  139.6007  164.6135 H       1  UNL1        0.1500
      5 C         145.2567  140.9057  163.5033 C.3     1  UNL1        0.1759
      6 N         144.8201  140.6904  162.0844 N.am    1  UNL1       -0.2931
      7 C         144.0679  139.4474  161.7116 C.2     1  UNL1        0.2462
      8 O         143.7522  138.4196  162.7575 O.2     1  UNL1       -0.2701
      9 H         145.0273  141.3650  161.3979 H       1  UNL1        0.1502
     10 C         143.6313  139.2322  160.2927 C.ar    1  UNL1        0.0535
     11 C         143.0127  137.9269  159.8882 C.ar    1  UNL1        0.0068
     12 C         142.5762  137.7117  158.4694 C.ar    1  UNL1        0.0298
     13 C         142.7582  138.8017  157.4551 C.ar    1  UNL1        0.1401
     14 F         142.3216  138.5865  156.0362 F       1  UNL1       -0.2042
     15 C         143.3768  140.1070  157.8596 C.ar    1  UNL1        0.0298
     16 C         143.8133  140.3222  159.2784 C.ar    1  UNL1        0.0068
     17 C         142.1753  141.0033  166.0024 C.3     1  UNL1        0.1171
     18 C         140.8808  141.6189  165.5605 C.ar    1  UNL1        0.0019
     19 C         139.7239  140.7422  165.1827 C.ar    1  UNL1       -0.0022
     20 C         138.4293  141.3577  164.7408 C.ar    1  UNL1        0.0020
     21 C         138.2917  142.8500  164.6768 C.ar    1  UNL1        0.0296
     22 C         139.4487  143.7268  165.0547 C.ar    1  UNL1        0.1399
     23 F         139.3111  145.2191  164.9907 F       1  UNL1       -0.2042
     24 C         140.7432  143.1112  165.4966 C.ar    1  UNL1        0.0273
     25 C         142.4875  140.8817  167.4645 C.ar    1  UNL1        0.0019
     26 C         142.9481  142.0832  168.2355 C.ar    1  UNL1       -0.0022
     27 C         143.2602  141.9615  169.6977 C.ar    1  UNL1        0.0020
     28 C         143.1118  140.6385  170.3887 C.ar    1  UNL1        0.0296
     29 C         142.6512  139.4371  169.6177 C.ar    1  UNL1        0.1399
     30 F         142.5028  138.1141  170.3088 F       1  UNL1       -0.2042
     31 C         142.3390  139.5587  168.1556 C.ar    1  UNL1        0.0273
@<TRIPOS>BOND
     1     1     2    2
     2     2     5    1
     3     5     6    1
     4     6     7   am
     5     7     8    2
     6     7    10    1
     7    10    11   ar
     8    11    12   ar
     9    12    13   ar
    10    13    14    1
    11    13    15   ar
    12    15    16   ar
    13     2     3   am
    14     3    17    1
    15    17    18    1
    16    18    19   ar
    17    19    20   ar
    18    20    21   ar
    19    21    22   ar
    20    22    23    1
    21    22    24   ar
    22    17    25    1
    23    25    26   ar
    24    26    27   ar
    25    27    28   ar
    26    28    29   ar
    27    29    30    1
    28    29    31   ar
    29    16    10   ar
    30    24    18   ar
    31    31    25   ar
    32     6     9    1
    33     3     4    1
@<TRIPOS>MOLECULE
*****
 31 33 0 0 0
SMALL
GASTEIGER

@<TRIPOS>ATOM
      1 O         140.6564  139.0834  166.2142 O.2     1  UNL1       -0.2732
      2 C         141.7790  139.5733  165.3483 C.2     1  UNL1        0.2430
      3 N         142.0571  141.0433  165.2412 N.am    1  UNL1       -0.2972
      4 H         142.7939  141.3648  164.6729 H       1  UNL1        0.1500
      5 C         142.6235  138.5930  164.5895 C.3     1  UNL1        0.1759
      6 N         142.6416  138.6218  163.0898 N.am    1  UNL1       -0.2931
      7 C         141.4856  138.0622  162.3150 C.2     1  UNL1        0.2462
      8 O         140.3114  137.4739  163.0397 O.2     1  UNL1       -0.2701
      9 H         143.4122  139.0080  162.6141 H       1  UNL1        0.1502
     10 C         141.5036  138.0910  160.8153 C.ar    1  UNL1        0.0535
     11 C         140.2798  138.5147  160.0585 C.ar    1  UNL1        0.0068
     12 C         140.2980  138.5434  158.5589 C.ar    1  UNL1        0.0298
     13 C         141.5398  138.1485  157.8161 C.ar    1  UNL1        0.1401
     14 F         141.5579  138.1773  156.3165 F       1  UNL1       -0.2042
     15 C         142.7636  137.7248  158.5729 C.ar    1  UNL1        0.0298
     16 C         142.7455  137.6961  160.0725 C.ar    1  UNL1        0.0068
     17 C         141.2126  142.0237  166.0001 C.3     1  UNL1        0.1171
     18 C         141.5375  142.3454  167.4286 C.ar    1  UNL1        0.0019
     19 C         140.4540  142.8032  168.3594 C.ar    1  UNL1       -0.0022
     20 C         140.7788  143.1249  169.7881 C.ar    1  UNL1        0.0020
     21 C         142.1873  142.9888  170.2859 C.ar    1  UNL1        0.0296
     22 C         143.2708  142.5309  169.3551 C.ar    1  UNL1        0.1399
     23 F         144.6792  142.3947  169.8529 F       1  UNL1       -0.2042
     24 C         142.9459  142.2092  167.9265 C.ar    1  UNL1        0.0273
     25 C         140.0431  142.6823  165.3302 C.ar    1  UNL1        0.0019
     26 C         139.9344  144.1783  165.3114 C.ar    1  UNL1       -0.0022
     27 C         138.7650  144.8368  164.6415 C.ar    1  UNL1        0.0020
     28 C         137.7042  143.9994  163.9906 C.ar    1  UNL1        0.0296
     29 C         137.8130  142.5035  164.0095 C.ar    1  UNL1        0.1399
     30 F         136.7522  141.6662  163.3586 F       1  UNL1       -0.2042
     31 C         138.9824  141.8449  164.6793 C.ar    1  UNL1        0.0273
@<TRIPOS>BOND
     1     1     2    2
     2     2     5    1
     3     5     6    1
     4     6     7   am
     5     7     8    2
     6     7    10    1
     7    10    11   ar
     8    11    12   ar
     9    12    13   ar
    10    13    14    1
    11    13    15   ar
    12    15    16   ar
    13     2     3   am
    14     3    17    1
    15    17    18    1
    16    18    19   ar
    17    19    20   ar
    18    20    21   ar
    19    21    22   ar
    20    22    23    1
    21    22    24   ar
    22    17    25    1
    23    25    26   ar
    24    26    27   ar
    25    27    28   ar
    26    28    29   ar
    27    29    30    1
    28    29    31   ar
    29    16    10   ar
    30    24    18   ar
    31    31    25   ar
    32     6     9    1
    33     3     4    1
@<TRIPOS>MOLECULE
*****
 31 33 0 0 0
SMALL
GASTEIGER

@<TRIPOS>ATOM
      1 O         141.4590  137.0897  164.8219 O.2     1  UNL1       -0.2732
      2 C         140.4112  138.0331  164.3101 C.2     1  UNL1        0.2430
      3 N         140.4479  139.4800  164.7038 N.am    1  UNL1       -0.2972
      4 H         139.7601  140.0992  164.3679 H       1  UNL1        0.1500
      5 C         139.3266  137.5296  163.4045 C.3     1  UNL1        0.1759
      6 N         139.3857  137.8148  161.9330 N.am    1  UNL1       -0.2931
      7 C         138.8209  139.0956  161.3940 C.2     1  UNL1        0.2462
      8 O         138.1971  140.0913  162.3264 O.2     1  UNL1       -0.2701
      9 H         139.7951  137.1613  161.3209 H       1  UNL1        0.1502
     10 C         138.8799  139.3807  159.9224 C.ar    1  UNL1        0.0535
     11 C         139.7543  138.5488  159.0318 C.ar    1  UNL1        0.0068
     12 C         139.8133  138.8339  157.5603 C.ar    1  UNL1        0.0298
     13 C         138.9979  139.9510  156.9796 C.ar    1  UNL1        0.1401
     14 F         139.0569  140.2362  155.5081 F       1  UNL1       -0.2042
     15 C         138.1236  140.7830  157.8703 C.ar    1  UNL1        0.0298
     16 C         138.0646  140.4978  159.3417 C.ar    1  UNL1        0.0068
     17 C         141.5325  139.9836  165.6095 C.3     1  UNL1        0.1171
     18 C         142.7811  140.5765  165.0268 C.ar    1  UNL1        0.0019
     19 C         143.8177  139.6847  164.4103 C.ar    1  UNL1       -0.0022
     20 C         145.0664  140.2776  163.8276 C.ar    1  UNL1        0.0020
     21 C         145.2783  141.7622  163.8614 C.ar    1  UNL1        0.0296
     22 C         144.2415  142.6539  164.4780 C.ar    1  UNL1        0.1399
     23 F         144.4534  144.1385  164.5118 F       1  UNL1       -0.2042
     24 C         142.9930  142.0610  165.0606 C.ar    1  UNL1        0.0273
     25 C         141.3684  139.8943  167.0978 C.ar    1  UNL1        0.0019
     26 C         142.5226  139.4667  167.9552 C.ar    1  UNL1       -0.0022
     27 C         142.3586  139.3773  169.4436 C.ar    1  UNL1        0.0020
     28 C         141.0404  139.7156  170.0745 C.ar    1  UNL1        0.0296
     29 C         139.8863  140.1432  169.2170 C.ar    1  UNL1        0.1399
     30 F         138.5681  140.4814  169.8479 F       1  UNL1       -0.2042
     31 C         140.0503  140.2325  167.7287 C.ar    1  UNL1        0.0273
@<TRIPOS>BOND
     1     1     2    2
     2     2     5    1
     3     5     6    1
     4     6     7   am
     5     7     8    2
     6     7    10    1
     7    10    11   ar
     8    11    12   ar
     9    12    13   ar
    10    13    14    1
    11    13    15   ar
    12    15    16   ar
    13     2     3   am
    14     3    17    1
    15    17    18    1
    16    18    19   ar
    17    19    20   ar
    18    20    21   ar
    19    21    22   ar
    20    22    23    1
    21    22    24   ar
    22    17    25    1
    23    25    26   ar
    24    26    27   ar
    25    27    28   ar
    26    28    29   ar
    27    29    30    1
    28    29    31   ar
    29    16    10   ar
    30    24    18   ar
    31    31    25   ar
    32     6     9    1
    33     3     4    1
