@<TRIPOS>MOLECULE
*****
 25 28 0 0 0
SMALL
GASTEIGER

@<TRIPOS>ATOM
      1 C         140.1338  138.5770  163.1452 C.ar    1  UNL1        0.0265
      2 C         139.0862  137.7598  163.8415 C.ar    1  UNL1        0.0067
      3 C         138.7257  138.0593  165.2663 C.ar    1  UNL1        0.0082
      4 C         139.4127  139.1761  165.9950 C.ar    1  UNL1        0.0431
      5 C         140.4603  139.9933  165.2987 C.ar    1  UNL1        0.0581
      6 C         140.8208  139.6937  163.8738 C.ar    1  UNL1        0.0215
      7 N         141.1473  141.1100  166.0273 N.pl3   1  UNL1       -0.2860
      8 C         140.7868  141.4095  167.4522 C.ar    1  UNL1        0.0576
      9 C         141.4739  142.5262  168.1808 C.ar    1  UNL1        0.0153
     10 C         141.1133  142.8258  169.6057 C.ar    1  UNL1        0.0013
     11 C         140.0658  142.0086  170.3019 C.ar    1  UNL1        0.0006
     12 C         139.3787  140.8919  169.5734 C.ar    1  UNL1        0.0077
     13 C         139.7393  140.5923  168.1485 C.ar    1  UNL1        0.0431
     14 S         139.0522  139.4756  167.4198 S.3     1  UNL1       -0.0844
     15 C         139.4293  138.2642  160.6641 C.3     1  UNL1        0.0742
     16 S         140.4943  138.2775  161.7203 S.3     1  UNL1       -0.1127
     17 C         142.1949  141.9272  165.3310 C.3     1  UNL1        0.0970
     18 C         141.8471  143.2764  164.7756 C.3     1  UNL1        0.0377
     19 C         140.4572  143.5486  164.2817 C.3     1  UNL1        0.0593
     20 C         139.4068  144.0424  165.2320 C.3     1  UNL1        0.0161
     21 C         138.0169  144.3146  164.7381 C.3     1  UNL1        0.0028
     22 C         137.6773  144.0930  163.2939 C.3     1  UNL1        0.0174
     23 C         138.7276  143.5992  162.3437 C.3     1  UNL1        0.0721
     24 N         140.1175  143.3270  162.8376 N.3     1  UNL1       -0.2727
     25 C         141.1679  142.8332  161.8873 C.3     1  UNL1        0.0896
@<TRIPOS>BOND
     1    15    16    1
     2    16     1    1
     3     1     2   ar
     4     2     3   ar
     5     3     4   ar
     6     4     5   ar
     7     5     6   ar
     8     5     7    1
     9     7    17    1
    10    17    18    1
    11    18    19    1
    12    19    20    1
    13    20    21    1
    14    21    22    1
    15    22    23    1
    16    23    24    1
    17    24    25    1
    18     7     8    1
    19     8     9   ar
    20     9    10   ar
    21    10    11   ar
    22    11    12   ar
    23    12    13   ar
    24    13    14    1
    25     6     1   ar
    26    24    19    1
    27    13     8   ar
    28    14     4    1
@<TRIPOS>MOLECULE
*****
 25 28 0 0 0
SMALL
GASTEIGER

@<TRIPOS>ATOM
      1 C         143.4576  140.1706  163.1568 C.ar    1  UNL1        0.0265
      2 C         144.3337  141.2730  163.6737 C.ar    1  UNL1        0.0067
      3 C         144.0517  141.8905  165.0113 C.ar    1  UNL1        0.0082
      4 C         142.8936  141.4055  165.8321 C.ar    1  UNL1        0.0431
      5 C         142.0175  140.3031  165.3152 C.ar    1  UNL1        0.0581
      6 C         142.2996  139.6856  163.9775 C.ar    1  UNL1        0.0215
      7 N         140.8594  139.8181  166.1359 N.pl3   1  UNL1       -0.2860
      8 C         140.5773  140.4355  167.4736 C.ar    1  UNL1        0.0576
      9 C         139.4193  139.9505  168.2943 C.ar    1  UNL1        0.0153
     10 C         139.1373  140.5680  169.6318 C.ar    1  UNL1        0.0013
     11 C         140.0133  141.6704  170.1487 C.ar    1  UNL1        0.0006
     12 C         141.1714  142.1554  169.3280 C.ar    1  UNL1        0.0077
     13 C         141.4534  141.5379  167.9904 C.ar    1  UNL1        0.0431
     14 S         142.6115  142.0229  167.1697 S.3     1  UNL1       -0.0844
     15 C         143.7763  138.0605  161.6749 C.3     1  UNL1        0.0742
     16 S         143.7396  139.5531  161.8192 S.3     1  UNL1       -0.1127
     17 C         139.9833  138.7157  165.6190 C.3     1  UNL1        0.0970
     18 C         138.5731  139.0112  165.2023 C.3     1  UNL1        0.0377
     19 C         138.2917  140.1403  164.2557 C.3     1  UNL1        0.0593
     20 C         138.1905  141.5448  164.7726 C.3     1  UNL1        0.0161
     21 C         137.9091  142.6739  163.8260 C.3     1  UNL1        0.0028
     22 C         137.7289  142.3984  162.3625 C.3     1  UNL1        0.0174
     23 C         137.8301  140.9939  161.8457 C.3     1  UNL1        0.0721
     24 N         138.1115  139.8649  162.7923 N.3     1  UNL1       -0.2727
     25 C         138.2127  138.4603  162.2755 C.3     1  UNL1        0.0896
@<TRIPOS>BOND
     1    15    16    1
     2    16     1    1
     3     1     2   ar
     4     2     3   ar
     5     3     4   ar
     6     4     5   ar
     7     5     6   ar
     8     5     7    1
     9     7    17    1
    10    17    18    1
    11    18    19    1
    12    19    20    1
    13    20    21    1
    14    21    22    1
    15    22    23    1
    16    23    24    1
    17    24    25    1
    18     7     8    1
    19     8     9   ar
    20     9    10   ar
    21    10    11   ar
    22    11    12   ar
    23    12    13   ar
    24    13    14    1
    25     6     1   ar
    26    24    19    1
    27    13     8   ar
    28    14     4    1
@<TRIPOS>MOLECULE
*****
 25 28 0 0 0
SMALL
GASTEIGER

@<TRIPOS>ATOM
      1 C         140.6520  141.8247  169.2054 C.ar    1  UNL1        0.0265
      2 C         139.5571  140.8863  169.6184 C.ar    1  UNL1        0.0067
      3 C         138.9861  139.9171  168.6261 C.ar    1  UNL1        0.0082
      4 C         139.5100  139.8863  167.2209 C.ar    1  UNL1        0.0431
      5 C         140.6049  140.8247  166.8079 C.ar    1  UNL1        0.0581
      6 C         141.1759  141.7940  167.8002 C.ar    1  UNL1        0.0215
      7 N         141.1287  140.7940  165.4027 N.pl3   1  UNL1       -0.2860
      8 C         140.5577  139.8248  164.4104 C.ar    1  UNL1        0.0576
      9 C         141.0816  139.7940  163.0053 C.ar    1  UNL1        0.0153
     10 C         140.5106  138.8248  162.0130 C.ar    1  UNL1        0.0013
     11 C         139.4157  137.8864  162.4260 C.ar    1  UNL1        0.0006
     12 C         138.8918  137.9171  163.8312 C.ar    1  UNL1        0.0077
     13 C         139.4628  138.8863  164.8234 C.ar    1  UNL1        0.0431
     14 S         138.9390  138.9171  166.2287 S.3     1  UNL1       -0.0844
     15 C         142.7072  142.9947  170.2812 C.3     1  UNL1        0.0742
     16 S         141.2230  142.7939  170.1976 S.3     1  UNL1       -0.1127
     17 C         142.2236  141.7325  164.9898 C.3     1  UNL1        0.0970
     18 C         141.8999  143.1543  164.6384 C.3     1  UNL1        0.0377
     19 C         140.5201  143.5168  164.1750 C.3     1  UNL1        0.0593
     20 C         139.4635  143.8788  165.1764 C.3     1  UNL1        0.0161
     21 C         138.0837  144.2414  164.7130 C.3     1  UNL1        0.0028
     22 C         137.7605  144.2419  163.2482 C.3     1  UNL1        0.0174
     23 C         138.8170  143.8799  162.2469 C.3     1  UNL1        0.0721
     24 N         140.1968  143.5174  162.7103 N.3     1  UNL1       -0.2727
     25 C         141.2533  143.1554  161.7088 C.3     1  UNL1        0.0896
@<TRIPOS>BOND
     1    15    16    1
     2    16     1    1
     3     1     2   ar
     4     2     3   ar
     5     3     4   ar
     6     4     5   ar
     7     5     6   ar
     8     5     7    1
     9     7    17    1
    10    17    18    1
    11    18    19    1
    12    19    20    1
    13    20    21    1
    14    21    22    1
    15    22    23    1
    16    23    24    1
    17    24    25    1
    18     7     8    1
    19     8     9   ar
    20     9    10   ar
    21    10    11   ar
    22    11    12   ar
    23    12    13   ar
    24    13    14    1
    25     6     1   ar
    26    24    19    1
    27    13     8   ar
    28    14     4    1
@<TRIPOS>MOLECULE
*****
 25 28 0 0 0
SMALL
GASTEIGER

@<TRIPOS>ATOM
      1 C         140.9639  141.2397  167.9351 C.ar    1  UNL1        0.0265
      2 C         140.7056  142.6666  167.5514 C.ar    1  UNL1        0.0067
      3 C         140.0373  142.9832  166.2465 C.ar    1  UNL1        0.0082
      4 C         139.6272  141.8729  165.3250 C.ar    1  UNL1        0.0431
      5 C         139.8855  140.4459  165.7086 C.ar    1  UNL1        0.0581
      6 C         140.5538  140.1294  167.0137 C.ar    1  UNL1        0.0215
      7 N         139.4754  139.3356  164.7872 N.pl3   1  UNL1       -0.2860
      8 C         138.8071  139.6522  163.4822 C.ar    1  UNL1        0.0576
      9 C         138.3970  138.5418  162.5608 C.ar    1  UNL1        0.0153
     10 C         137.7287  138.8584  161.2558 C.ar    1  UNL1        0.0013
     11 C         137.4704  140.2854  160.8722 C.ar    1  UNL1        0.0006
     12 C         137.8805  141.3957  161.7935 C.ar    1  UNL1        0.0077
     13 C         138.5488  141.0791  163.0985 C.ar    1  UNL1        0.0431
     14 S         138.9589  142.1895  164.0200 S.3     1  UNL1       -0.0844
     15 C         141.9907  139.5055  169.5746 C.3     1  UNL1        0.0742
     16 S         141.6322  140.9231  169.2401 S.3     1  UNL1       -0.1127
     17 C         139.7337  137.9087  165.1709 C.3     1  UNL1        0.0970
     18 C         140.9257  137.1868  164.6159 C.3     1  UNL1        0.0377
     19 C         142.2159  137.9220  164.4037 C.3     1  UNL1        0.0593
     20 C         143.0509  138.3271  165.5821 C.3     1  UNL1        0.0161
     21 C         144.3410  139.0622  165.3699 C.3     1  UNL1        0.0028
     22 C         144.7962  139.3923  163.9791 C.3     1  UNL1        0.0174
     23 C         143.9612  138.9871  162.8008 C.3     1  UNL1        0.0721
     24 N         142.6710  138.2520  163.0130 N.3     1  UNL1       -0.2727
     25 C         141.8360  137.8469  161.8346 C.3     1  UNL1        0.0896
@<TRIPOS>BOND
     1    15    16    1
     2    16     1    1
     3     1     2   ar
     4     2     3   ar
     5     3     4   ar
     6     4     5   ar
     7     5     6   ar
     8     5     7    1
     9     7    17    1
    10    17    18    1
    11    18    19    1
    12    19    20    1
    13    20    21    1
    14    21    22    1
    15    22    23    1
    16    23    24    1
    17    24    25    1
    18     7     8    1
    19     8     9   ar
    20     9    10   ar
    21    10    11   ar
    22    11    12   ar
    23    12    13   ar
    24    13    14    1
    25     6     1   ar
    26    24    19    1
    27    13     8   ar
    28    14     4    1
@<TRIPOS>MOLECULE
*****
 25 28 0 0 0
SMALL
GASTEIGER

@<TRIPOS>ATOM
      1 C         139.4408  139.9102  168.1099 C.ar    1  UNL1        0.0265
      2 C         138.2983  139.1913  167.4559 C.ar    1  UNL1        0.0067
      3 C         138.4592  138.6262  166.0758 C.ar    1  UNL1        0.0082
      4 C         139.7627  138.7801  165.3496 C.ar    1  UNL1        0.0431
      5 C         140.9052  139.4991  166.0036 C.ar    1  UNL1        0.0581
      6 C         140.7442  140.0641  167.3838 C.ar    1  UNL1        0.0215
      7 N         142.2087  139.6530  165.2775 N.pl3   1  UNL1       -0.2860
      8 C         142.3696  139.0879  163.8973 C.ar    1  UNL1        0.0576
      9 C         143.6731  139.2418  163.1712 C.ar    1  UNL1        0.0153
     10 C         143.8340  138.6767  161.7911 C.ar    1  UNL1        0.0013
     11 C         142.6915  137.9578  161.1371 C.ar    1  UNL1        0.0006
     12 C         141.3880  137.8039  161.8632 C.ar    1  UNL1        0.0077
     13 C         141.2271  138.3689  163.2433 C.ar    1  UNL1        0.0431
     14 S         139.9236  138.2150  163.9695 S.3     1  UNL1       -0.0844
     15 C         140.2471  140.0976  170.5726 C.3     1  UNL1        0.0742
     16 S         139.2799  140.4753  169.4900 S.3     1  UNL1       -0.1127
     17 C         143.3512  140.3719  165.9315 C.3     1  UNL1        0.0970
     18 C         143.3419  141.8691  166.0219 C.3     1  UNL1        0.0377
     19 C         143.2324  142.6952  164.7747 C.3     1  UNL1        0.0593
     20 C         144.4219  142.8563  163.8750 C.3     1  UNL1        0.0161
     21 C         144.3124  143.6823  162.6277 C.3     1  UNL1        0.0028
     22 C         143.0135  144.3473  162.2802 C.3     1  UNL1        0.0174
     23 C         141.8241  144.1862  163.1798 C.3     1  UNL1        0.0721
     24 N         141.9336  143.3601  164.4271 N.3     1  UNL1       -0.2727
     25 C         140.7442  143.1990  165.3268 C.3     1  UNL1        0.0896
@<TRIPOS>BOND
     1    15    16    1
     2    16     1    1
     3     1     2   ar
     4     2     3   ar
     5     3     4   ar
     6     4     5   ar
     7     5     6   ar
     8     5     7    1
     9     7    17    1
    10    17    18    1
    11    18    19    1
    12    19    20    1
    13    20    21    1
    14    21    22    1
    15    22    23    1
    16    23    24    1
    17    24    25    1
    18     7     8    1
    19     8     9   ar
    20     9    10   ar
    21    10    11   ar
    22    11    12   ar
    23    12    13   ar
    24    13    14    1
    25     6     1   ar
    26    24    19    1
    27    13     8   ar
    28    14     4    1
@<TRIPOS>MOLECULE
*****
 25 28 0 0 0
SMALL
GASTEIGER

@<TRIPOS>ATOM
      1 C         144.0161  140.7491  162.8803 C.ar    1  UNL1        0.0265
      2 C         143.8575  139.4682  162.1160 C.ar    1  UNL1        0.0067
      3 C         142.7591  138.5118  162.4747 C.ar    1  UNL1        0.0082
      4 C         141.8192  138.8362  163.5978 C.ar    1  UNL1        0.0431
      5 C         141.9777  140.1171  164.3622 C.ar    1  UNL1        0.0581
      6 C         143.0762  141.0735  164.0034 C.ar    1  UNL1        0.0215
      7 N         141.0379  140.4415  165.4853 N.pl3   1  UNL1       -0.2860
      8 C         139.9394  139.4851  165.8440 C.ar    1  UNL1        0.0576
      9 C         138.9996  139.8095  166.9671 C.ar    1  UNL1        0.0153
     10 C         137.9012  138.8531  167.3259 C.ar    1  UNL1        0.0013
     11 C         137.7426  137.5723  166.5615 C.ar    1  UNL1        0.0006
     12 C         138.6825  137.2478  165.4384 C.ar    1  UNL1        0.0077
     13 C         139.7809  138.2042  165.0797 C.ar    1  UNL1        0.0431
     14 S         140.7208  137.8798  163.9565 S.3     1  UNL1       -0.0844
     15 C         144.8097  142.9245  161.7023 C.3     1  UNL1        0.0742
     16 S         145.1145  141.7055  162.5216 S.3     1  UNL1       -0.1127
     17 C         141.1964  141.7224  166.2496 C.3     1  UNL1        0.0970
     18 C         140.2247  142.8458  166.0405 C.3     1  UNL1        0.0377
     19 C         140.2880  143.6688  164.7881 C.3     1  UNL1        0.0593
     20 C         141.5697  144.3434  164.3978 C.3     1  UNL1        0.0161
     21 C         141.6329  145.1664  163.1454 C.3     1  UNL1        0.0028
     22 C         140.4144  145.3148  162.2831 C.3     1  UNL1        0.0174
     23 C         139.1328  144.6402  162.6734 C.3     1  UNL1        0.0721
     24 N         139.0696  143.8172  163.9258 N.3     1  UNL1       -0.2727
     25 C         137.7879  143.1425  164.3160 C.3     1  UNL1        0.0896
@<TRIPOS>BOND
     1    15    16    1
     2    16     1    1
     3     1     2   ar
     4     2     3   ar
     5     3     4   ar
     6     4     5   ar
     7     5     6   ar
     8     5     7    1
     9     7    17    1
    10    17    18    1
    11    18    19    1
    12    19    20    1
    13    20    21    1
    14    21    22    1
    15    22    23    1
    16    23    24    1
    17    24    25    1
    18     7     8    1
    19     8     9   ar
    20     9    10   ar
    21    10    11   ar
    22    11    12   ar
    23    12    13   ar
    24    13    14    1
    25     6     1   ar
    26    24    19    1
    27    13     8   ar
    28    14     4    1
@<TRIPOS>MOLECULE
*****
 25 28 0 0 0
SMALL
GASTEIGER

@<TRIPOS>ATOM
      1 C         141.3605  141.9975  167.9030 C.ar    1  UNL1        0.0265
      2 C         142.8396  142.0817  167.6679 C.ar    1  UNL1        0.0067
      3 C         143.3633  142.4888  166.3226 C.ar    1  UNL1        0.0082
      4 C         142.4078  142.8118  165.2122 C.ar    1  UNL1        0.0431
      5 C         140.9288  142.7276  165.4472 C.ar    1  UNL1        0.0581
      6 C         140.4051  142.3205  166.7927 C.ar    1  UNL1        0.0215
      7 N         139.9733  143.0506  164.3369 N.pl3   1  UNL1       -0.2860
      8 C         140.4970  143.4578  162.9915 C.ar    1  UNL1        0.0576
      9 C         139.5416  143.7807  161.8812 C.ar    1  UNL1        0.0153
     10 C         140.0652  144.1879  160.5359 C.ar    1  UNL1        0.0013
     11 C         141.5443  144.2721  160.3008 C.ar    1  UNL1        0.0006
     12 C         142.4997  143.9491  161.4111 C.ar    1  UNL1        0.0077
     13 C         141.9761  143.5420  162.7565 C.ar    1  UNL1        0.0431
     14 S         142.9315  143.2190  163.8669 S.3     1  UNL1       -0.0844
     15 C         139.8519  140.4645  169.3604 C.3     1  UNL1        0.0742
     16 S         140.8369  141.5904  169.2483 S.3     1  UNL1       -0.1127
     17 C         138.4943  142.9664  164.5720 C.3     1  UNL1        0.0970
     18 C         137.7069  141.8272  163.9956 C.3     1  UNL1        0.0377
     19 C         138.1293  140.4128  164.2622 C.3     1  UNL1        0.0593
     20 C         138.1307  139.8823  165.6653 C.3     1  UNL1        0.0161
     21 C         138.5531  138.4680  165.9319 C.3     1  UNL1        0.0028
     22 C         138.9741  137.5841  164.7953 C.3     1  UNL1        0.0174
     23 C         138.9727  138.1146  163.3923 C.3     1  UNL1        0.0721
     24 N         138.5503  139.5290  163.1257 N.3     1  UNL1       -0.2727
     25 C         138.5489  140.0595  161.7226 C.3     1  UNL1        0.0896
@<TRIPOS>BOND
     1    15    16    1
     2    16     1    1
     3     1     2   ar
     4     2     3   ar
     5     3     4   ar
     6     4     5   ar
     7     5     6   ar
     8     5     7    1
     9     7    17    1
    10    17    18    1
    11    18    19    1
    12    19    20    1
    13    20    21    1
    14    21    22    1
    15    22    23    1
    16    23    24    1
    17    24    25    1
    18     7     8    1
    19     8     9   ar
    20     9    10   ar
    21    10    11   ar
    22    11    12   ar
    23    12    13   ar
    24    13    14    1
    25     6     1   ar
    26    24    19    1
    27    13     8   ar
    28    14     4    1
@<TRIPOS>MOLECULE
*****
 25 28 0 0 0
SMALL
GASTEIGER

@<TRIPOS>ATOM
      1 C         141.0020  140.9996  168.3462 C.ar    1  UNL1        0.0265
      2 C         142.0882  142.0200  168.1760 C.ar    1  UNL1        0.0067
      3 C         142.9249  142.0242  166.9311 C.ar    1  UNL1        0.0082
      4 C         142.6755  141.0079  165.8564 C.ar    1  UNL1        0.0431
      5 C         141.5893  139.9874  166.0266 C.ar    1  UNL1        0.0581
      6 C         140.7526  139.9833  167.2715 C.ar    1  UNL1        0.0215
      7 N         141.3399  138.9712  164.9519 N.pl3   1  UNL1       -0.2860
      8 C         142.1767  138.9753  163.7069 C.ar    1  UNL1        0.0576
      9 C         141.9272  137.9591  162.6323 C.ar    1  UNL1        0.0153
     10 C         142.7640  137.9632  161.3874 C.ar    1  UNL1        0.0013
     11 C         143.8502  138.9837  161.2172 C.ar    1  UNL1        0.0006
     12 C         144.0996  139.9999  162.2918 C.ar    1  UNL1        0.0077
     13 C         143.2628  139.9957  163.5367 C.ar    1  UNL1        0.0431
     14 S         143.5122  141.0120  164.6115 S.3     1  UNL1       -0.0844
     15 C         140.3202  142.0922  170.6026 C.3     1  UNL1        0.0742
     16 S         140.1652  140.9954  169.5911 S.3     1  UNL1       -0.1127
     17 C         140.2537  137.9508  165.1221 C.3     1  UNL1        0.0970
     18 C         138.8149  138.3648  165.0318 C.3     1  UNL1        0.0377
     19 C         138.4258  139.5475  164.1952 C.3     1  UNL1        0.0593
     20 C         138.2709  140.8974  164.8308 C.3     1  UNL1        0.0161
     21 C         137.8818  142.0800  163.9942 C.3     1  UNL1        0.0028
     22 C         137.6477  141.9128  162.5220 C.3     1  UNL1        0.0174
     23 C         137.8027  140.5630  161.8865 C.3     1  UNL1        0.0721
     24 N         138.1917  139.3803  162.7231 N.3     1  UNL1       -0.2727
     25 C         138.3467  138.0305  162.0875 C.3     1  UNL1        0.0896
@<TRIPOS>BOND
     1    15    16    1
     2    16     1    1
     3     1     2   ar
     4     2     3   ar
     5     3     4   ar
     6     4     5   ar
     7     5     6   ar
     8     5     7    1
     9     7    17    1
    10    17    18    1
    11    18    19    1
    12    19    20    1
    13    20    21    1
    14    21    22    1
    15    22    23    1
    16    23    24    1
    17    24    25    1
    18     7     8    1
    19     8     9   ar
    20     9    10   ar
    21    10    11   ar
    22    11    12   ar
    23    12    13   ar
    24    13    14    1
    25     6     1   ar
    26    24    19    1
    27    13     8   ar
    28    14     4    1
@<TRIPOS>MOLECULE
*****
 25 28 0 0 0
SMALL
GASTEIGER

@<TRIPOS>ATOM
      1 C         140.4173  140.2319  168.7510 C.ar    1  UNL1        0.0265
      2 C         141.8649  139.8642  168.8897 C.ar    1  UNL1        0.0067
      3 C         142.6262  139.3537  167.7024 C.ar    1  UNL1        0.0082
      4 C         141.9398  139.2109  166.3762 C.ar    1  UNL1        0.0431
      5 C         140.4922  139.5786  166.2375 C.ar    1  UNL1        0.0581
      6 C         139.7310  140.0891  167.4250 C.ar    1  UNL1        0.0215
      7 N         139.8059  139.4358  164.9114 N.pl3   1  UNL1       -0.2860
      8 C         140.5671  138.9253  163.7240 C.ar    1  UNL1        0.0576
      9 C         139.8808  138.7825  162.3979 C.ar    1  UNL1        0.0153
     10 C         140.6421  138.2721  161.2106 C.ar    1  UNL1        0.0013
     11 C         142.0897  137.9043  161.3493 C.ar    1  UNL1        0.0006
     12 C         142.7760  138.0471  162.6754 C.ar    1  UNL1        0.0077
     13 C         142.0147  138.5576  163.8627 C.ar    1  UNL1        0.0431
     14 S         142.7011  138.7004  165.1889 S.3     1  UNL1       -0.0844
     15 C         139.7720  142.1827  170.3410 C.3     1  UNL1        0.0742
     16 S         139.6560  140.7424  169.9384 S.3     1  UNL1       -0.1127
     17 C         138.3583  139.8036  164.7727 C.3     1  UNL1        0.0970
     18 C         137.9644  141.2371  164.5737 C.3     1  UNL1        0.0377
     19 C         138.4953  142.0048  163.3995 C.3     1  UNL1        0.0593
     20 C         137.8773  141.8251  162.0445 C.3     1  UNL1        0.0161
     21 C         138.4082  142.5927  160.8703 C.3     1  UNL1        0.0028
     22 C         139.5572  143.5400  161.0510 C.3     1  UNL1        0.0174
     23 C         140.1751  143.7197  162.4059 C.3     1  UNL1        0.0721
     24 N         139.6442  142.9520  163.5801 N.3     1  UNL1       -0.2727
     25 C         140.2622  143.1317  164.9351 C.3     1  UNL1        0.0896
@<TRIPOS>BOND
     1    15    16    1
     2    16     1    1
     3     1     2   ar
     4     2     3   ar
     5     3     4   ar
     6     4     5   ar
     7     5     6   ar
     8     5     7    1
     9     7    17    1
    10    17    18    1
    11    18    19    1
    12    19    20    1
    13    20    21    1
    14    21    22    1
    15    22    23    1
    16    23    24    1
    17    24    25    1
    18     7     8    1
    19     8     9   ar
    20     9    10   ar
    21    10    11   ar
    22    11    12   ar
    23    12    13   ar
    24    13    14    1
    25     6     1   ar
    26    24    19    1
    27    13     8   ar
    28    14     4    1
