@<TRIPOS>MOLECULE
*****
 19 20 0 0 0
SMALL
GASTEIGER

@<TRIPOS>ATOM
      1 C         139.5669  143.0798  166.2661 C.2     1  UNL1        0.0001
      2 C         140.8565  142.7648  166.9644 C.2     1  UNL1        0.0031
      3 C         140.8408  142.0411  168.2782 C.ar    1  UNL1        0.0380
      4 C         140.5565  142.7924  169.5450 C.ar    1  UNL1        0.1409
      5 F         140.2880  144.2674  169.4980 F       1  UNL1       -0.2041
      6 C         140.5408  142.0687  170.8587 C.ar    1  UNL1        0.0297
      7 C         140.8093  140.5936  170.9057 C.ar    1  UNL1        0.0032
      8 C         141.0935  139.8424  169.6389 C.ar    1  UNL1        0.0115
      9 C         141.1093  140.5661  168.3252 C.ar    1  UNL1        0.0598
     10 CL        141.3935  139.8148  167.0584 Cl      1  UNL1       -0.0822
     11 C         139.6142  145.2510  162.3249 C.ar    1  UNL1        0.0447
     12 C         140.8870  145.0724  163.0980 C.ar    1  UNL1        0.0143
     13 C         140.8713  144.3486  164.4118 C.ar    1  UNL1        0.0013
     14 C         139.5827  143.8035  164.9524 C.ar    1  UNL1        0.0001
     15 C         138.3098  143.9822  164.1792 C.ar    1  UNL1        0.0013
     16 C         138.3255  144.7059  162.8655 C.ar    1  UNL1        0.0143
     17 C         140.3706  145.3935  159.8435 C.3     1  UNL1        0.1085
     18 N         139.6299  145.9747  161.0111 N.pl3   1  UNL1       -0.3313
     19 H         139.1541  146.8313  160.9152 H       1  UNL1        0.1469
@<TRIPOS>BOND
     1    17    18    1
     2    18    11    1
     3    11    12   ar
     4    12    13   ar
     5    13    14   ar
     6    14     1    1
     7     1     2    2
     8     2     3    1
     9     3     4   ar
    10     4     5    1
    11     4     6   ar
    12     6     7   ar
    13     7     8   ar
    14     8     9   ar
    15     9    10    1
    16    14    15   ar
    17    15    16   ar
    18    16    11   ar
    19     9     3   ar
    20    18    19    1
@<TRIPOS>MOLECULE
*****
 19 20 0 0 0
SMALL
GASTEIGER

@<TRIPOS>ATOM
      1 C         139.6724  142.6960  166.2297 C.2     1  UNL1        0.0001
      2 C         140.8532  142.7853  167.1504 C.2     1  UNL1        0.0031
      3 C         140.8966  141.9527  168.3974 C.ar    1  UNL1        0.0380
      4 C         141.1854  140.4834  168.3085 C.ar    1  UNL1        0.1409
      5 F         141.4308  139.8468  166.9728 F       1  UNL1       -0.2041
      6 C         141.2287  139.6509  169.5555 C.ar    1  UNL1        0.0297
      7 C         140.9833  140.2876  170.8914 C.ar    1  UNL1        0.0032
      8 C         140.6945  141.7569  170.9802 C.ar    1  UNL1        0.0115
      9 C         140.6511  142.5894  169.7332 C.ar    1  UNL1        0.0598
     10 CL        140.3624  144.0586  169.8220 Cl      1  UNL1       -0.0822
     11 C         139.5424  145.1937  162.4887 C.ar    1  UNL1        0.0447
     12 C         140.8415  144.9914  163.2107 C.ar    1  UNL1        0.0143
     13 C         140.8849  144.1589  164.4577 C.ar    1  UNL1        0.0013
     14 C         139.6291  143.5286  164.9827 C.ar    1  UNL1        0.0001
     15 C         138.3299  143.7309  164.2608 C.ar    1  UNL1        0.0013
     16 C         138.2866  144.5634  163.0138 C.ar    1  UNL1        0.0143
     17 C         140.2810  145.6069  160.0324 C.3     1  UNL1        0.1085
     18 N         139.4990  146.0263  161.2418 N.pl3   1  UNL1       -0.3313
     19 H         138.9573  146.8480  161.2171 H       1  UNL1        0.1469
@<TRIPOS>BOND
     1    17    18    1
     2    18    11    1
     3    11    12   ar
     4    12    13   ar
     5    13    14   ar
     6    14     1    1
     7     1     2    2
     8     2     3    1
     9     3     4   ar
    10     4     5    1
    11     4     6   ar
    12     6     7   ar
    13     7     8   ar
    14     8     9   ar
    15     9    10    1
    16    14    15   ar
    17    15    16   ar
    18    16    11   ar
    19     9     3   ar
    20    18    19    1
@<TRIPOS>MOLECULE
*****
 19 20 0 0 0
SMALL
GASTEIGER

@<TRIPOS>ATOM
      1 C         140.0412  139.9162  166.7776 C.2     1  UNL1        0.0001
      2 C         140.2753  141.3333  167.2100 C.2     1  UNL1        0.0031
      3 C         140.9403  141.6162  168.5244 C.ar    1  UNL1        0.0380
      4 C         140.1904  141.4020  169.8058 C.ar    1  UNL1        0.1409
      5 F         138.7756  140.9048  169.7727 F       1  UNL1       -0.2041
      6 C         140.8554  141.6849  171.1203 C.ar    1  UNL1        0.0297
      7 C         142.2702  142.1821  171.1533 C.ar    1  UNL1        0.0032
      8 C         143.0200  142.3964  169.8720 C.ar    1  UNL1        0.0115
      9 C         142.3551  142.1134  168.5576 C.ar    1  UNL1        0.0598
     10 CL        143.1049  142.3277  167.2763 Cl      1  UNL1       -0.0822
     11 C         138.0463  139.0673  162.8343 C.ar    1  UNL1        0.0447
     12 C         137.9086  140.4195  163.4688 C.ar    1  UNL1        0.0143
     13 C         138.5736  140.7024  164.7832 C.ar    1  UNL1        0.0013
     14 C         139.3762  139.6332  165.4632 C.ar    1  UNL1        0.0001
     15 C         139.5140  138.2810  164.8287 C.ar    1  UNL1        0.0013
     16 C         138.8490  137.9981  163.5143 C.ar    1  UNL1        0.0143
     17 C         137.4320  139.8022  160.4192 C.3     1  UNL1        0.1085
     18 N         137.3814  138.7843  161.5198 N.pl3   1  UNL1       -0.3313
     19 H         136.9117  137.9305  161.3795 H       1  UNL1        0.1469
@<TRIPOS>BOND
     1    17    18    1
     2    18    11    1
     3    11    12   ar
     4    12    13   ar
     5    13    14   ar
     6    14     1    1
     7     1     2    2
     8     2     3    1
     9     3     4   ar
    10     4     5    1
    11     4     6   ar
    12     6     7   ar
    13     7     8   ar
    14     8     9   ar
    15     9    10    1
    16    14    15   ar
    17    15    16   ar
    18    16    11   ar
    19     9     3   ar
    20    18    19    1
@<TRIPOS>MOLECULE
*****
 19 20 0 0 0
SMALL
GASTEIGER

@<TRIPOS>ATOM
      1 C         139.9630  141.0000  166.2804 C.2     1  UNL1        0.0001
      2 C         140.0197  139.9582  167.3581 C.2     1  UNL1        0.0031
      3 C         140.7461  140.2431  168.6392 C.ar    1  UNL1        0.0380
      4 C         142.2404  140.3735  168.6411 C.ar    1  UNL1        0.1409
      5 F         143.0084  140.2190  167.3619 F       1  UNL1       -0.2041
      6 C         142.9667  140.6584  169.9222 C.ar    1  UNL1        0.0297
      7 C         142.1987  140.8128  171.2015 C.ar    1  UNL1        0.0032
      8 C         140.7044  140.6824  171.1995 C.ar    1  UNL1        0.0115
      9 C         139.9781  140.3975  169.9184 C.ar    1  UNL1        0.0598
     10 CL        138.4838  140.2671  169.9164 Cl      1  UNL1       -0.0822
     11 C         137.7840  140.1453  162.4370 C.ar    1  UNL1        0.0447
     12 C         138.8794  139.2300  162.8977 C.ar    1  UNL1        0.0143
     13 C         139.6058  139.5149  164.1788 C.ar    1  UNL1        0.0013
     14 C         139.2367  140.7151  164.9993 C.ar    1  UNL1        0.0001
     15 C         138.1413  141.6304  164.5386 C.ar    1  UNL1        0.0013
     16 C         137.4150  141.3455  163.2575 C.ar    1  UNL1        0.0143
     17 C         137.7799  139.9640  159.8453 C.3     1  UNL1        0.1085
     18 N         137.0577  139.8604  161.1559 N.pl3   1  UNL1       -0.3313
     19 H         136.1070  139.6055  161.1752 H       1  UNL1        0.1469
@<TRIPOS>BOND
     1    17    18    1
     2    18    11    1
     3    11    12   ar
     4    12    13   ar
     5    13    14   ar
     6    14     1    1
     7     1     2    2
     8     2     3    1
     9     3     4   ar
    10     4     5    1
    11     4     6   ar
    12     6     7   ar
    13     7     8   ar
    14     8     9   ar
    15     9    10    1
    16    14    15   ar
    17    15    16   ar
    18    16    11   ar
    19     9     3   ar
    20    18    19    1
@<TRIPOS>MOLECULE
*****
 19 20 0 0 0
SMALL
GASTEIGER

@<TRIPOS>ATOM
      1 C         143.2465  142.2628  166.4972 C.2     1  UNL1        0.0001
      2 C         141.9340  141.5785  166.7400 C.2     1  UNL1        0.0031
      3 C         141.4206  141.4160  168.1400 C.ar    1  UNL1        0.0380
      4 C         140.5107  142.4524  168.7301 C.ar    1  UNL1        0.1409
      5 F         140.1142  143.6510  167.9203 F       1  UNL1       -0.2041
      6 C         139.9973  142.2899  170.1302 C.ar    1  UNL1        0.0297
      7 C         140.3938  141.0911  170.9400 C.ar    1  UNL1        0.0032
      8 C         141.3037  140.0549  170.3499 C.ar    1  UNL1        0.0115
      9 C         141.8171  140.2174  168.9499 C.ar    1  UNL1        0.0598
     10 CL        142.7269  139.1811  168.3597 Cl      1  UNL1       -0.0822
     11 C         144.7867  142.7501  162.2971 C.ar    1  UNL1        0.0447
     12 C         144.0912  143.8914  162.9781 C.ar    1  UNL1        0.0143
     13 C         143.5778  143.7289  164.3781 C.ar    1  UNL1        0.0013
     14 C         143.7599  142.4252  165.0971 C.ar    1  UNL1        0.0001
     15 C         144.4554  141.2840  164.4162 C.ar    1  UNL1        0.0013
     16 C         144.9689  141.4464  163.0162 C.ar    1  UNL1        0.0143
     17 C         144.4889  142.4139  159.7382 C.3     1  UNL1        0.1085
     18 N         145.3001  142.9126  160.8971 N.pl3   1  UNL1       -0.3313
     19 H         146.1696  143.3465  160.7389 H       1  UNL1        0.1469
@<TRIPOS>BOND
     1    17    18    1
     2    18    11    1
     3    11    12   ar
     4    12    13   ar
     5    13    14   ar
     6    14     1    1
     7     1     2    2
     8     2     3    1
     9     3     4   ar
    10     4     5    1
    11     4     6   ar
    12     6     7   ar
    13     7     8   ar
    14     8     9   ar
    15     9    10    1
    16    14    15   ar
    17    15    16   ar
    18    16    11   ar
    19     9     3   ar
    20    18    19    1
@<TRIPOS>MOLECULE
*****
 19 20 0 0 0
SMALL
GASTEIGER

@<TRIPOS>ATOM
      1 C         140.4774  142.9762  166.4883 C.2     1  UNL1        0.0001
      2 C         141.1722  141.6803  166.7848 C.2     1  UNL1        0.0031
      3 C         141.4431  141.2826  168.2055 C.ar    1  UNL1        0.0380
      4 C         142.7177  141.7069  168.8731 C.ar    1  UNL1        0.1409
      5 F         143.7212  142.5290  168.1200 F       1  UNL1       -0.2041
      6 C         142.9886  141.3092  170.2938 C.ar    1  UNL1        0.0297
      7 C         141.9851  140.4871  171.0469 C.ar    1  UNL1        0.0032
      8 C         140.7106  140.0628  170.3793 C.ar    1  UNL1        0.0115
      9 C         140.4397  140.4606  168.9586 C.ar    1  UNL1        0.0598
     10 CL        139.1652  140.0363  168.2910 Cl      1  UNL1       -0.0822
     11 C         139.6645  144.1694  162.2262 C.ar    1  UNL1        0.0447
     12 C         138.8104  144.7128  163.3330 C.ar    1  UNL1        0.0143
     13 C         139.0813  144.3150  164.7537 C.ar    1  UNL1        0.0013
     14 C         140.2064  143.3739  165.0676 C.ar    1  UNL1        0.0001
     15 C         141.0605  142.8306  163.9607 C.ar    1  UNL1        0.0013
     16 C         140.7895  143.2283  162.5400 C.ar    1  UNL1        0.0143
     17 C         140.5246  144.9931  159.9171 C.3     1  UNL1        0.1085
     18 N         139.3935  144.5672  160.8055 N.pl3   1  UNL1       -0.3313
     19 H         138.4733  144.5487  160.4561 H       1  UNL1        0.1469
@<TRIPOS>BOND
     1    17    18    1
     2    18    11    1
     3    11    12   ar
     4    12    13   ar
     5    13    14   ar
     6    14     1    1
     7     1     2    2
     8     2     3    1
     9     3     4   ar
    10     4     5    1
    11     4     6   ar
    12     6     7   ar
    13     7     8   ar
    14     8     9   ar
    15     9    10    1
    16    14    15   ar
    17    15    16   ar
    18    16    11   ar
    19     9     3   ar
    20    18    19    1
@<TRIPOS>MOLECULE
*****
 19 20 0 0 0
SMALL
GASTEIGER

@<TRIPOS>ATOM
      1 C         140.0228  142.6675  166.3553 C.2     1  UNL1        0.0001
      2 C         140.5541  141.3543  166.8484 C.2     1  UNL1        0.0031
      3 C         141.0249  141.2206  168.2663 C.ar    1  UNL1        0.0380
      4 C         140.1244  140.6146  169.3017 C.ar    1  UNL1        0.1409
      5 F         138.7532  140.1422  168.9191 F       1  UNL1       -0.2041
      6 C         140.5953  140.4809  170.7196 C.ar    1  UNL1        0.0297
      7 C         141.9667  140.9533  171.1021 C.ar    1  UNL1        0.0032
      8 C         142.8671  141.5593  170.0668 C.ar    1  UNL1        0.0115
      9 C         142.3962  141.6930  168.6489 C.ar    1  UNL1        0.0598
     10 CL        143.2966  142.2990  167.6136 Cl      1  UNL1       -0.0822
     11 C         138.6102  143.0685  162.1016 C.ar    1  UNL1        0.0447
     12 C         137.7776  143.6153  163.2230 C.ar    1  UNL1        0.0143
     13 C         138.2485  143.4817  164.6409 C.ar    1  UNL1        0.0013
     14 C         139.5519  142.8011  164.9374 C.ar    1  UNL1        0.0001
     15 C         140.3845  142.2543  163.8159 C.ar    1  UNL1        0.0013
     16 C         139.9136  142.3879  162.3980 C.ar    1  UNL1        0.0143
     17 C         138.5351  142.1775  159.6622 C.3     1  UNL1        0.1085
     18 N         138.1393  143.2021  160.6837 N.pl3   1  UNL1       -0.3313
     19 H         137.5705  143.9624  160.4235 H       1  UNL1        0.1469
@<TRIPOS>BOND
     1    17    18    1
     2    18    11    1
     3    11    12   ar
     4    12    13   ar
     5    13    14   ar
     6    14     1    1
     7     1     2    2
     8     2     3    1
     9     3     4   ar
    10     4     5    1
    11     4     6   ar
    12     6     7   ar
    13     7     8   ar
    14     8     9   ar
    15     9    10    1
    16    14    15   ar
    17    15    16   ar
    18    16    11   ar
    19     9     3   ar
    20    18    19    1
@<TRIPOS>MOLECULE
*****
 19 20 0 0 0
SMALL
GASTEIGER

@<TRIPOS>ATOM
      1 C         139.7481  140.7368  165.0677 C.2     1  UNL1        0.0001
      2 C         138.6731  139.8454  164.5201 C.2     1  UNL1        0.0031
      3 C         138.5755  139.6091  163.0420 C.ar    1  UNL1        0.0380
      4 C         137.8088  140.5664  162.1784 C.ar    1  UNL1        0.1409
      5 F         137.1398  141.7600  162.7928 F       1  UNL1       -0.2041
      6 C         137.7112  140.3300  160.7003 C.ar    1  UNL1        0.0297
      7 C         138.3803  139.1363  160.0859 C.ar    1  UNL1        0.0032
      8 C         139.1470  138.1790  160.9496 C.ar    1  UNL1        0.0115
      9 C         139.2446  138.4154  162.4276 C.ar    1  UNL1        0.0598
     10 CL        140.0112  137.4582  163.2912 Cl      1  UNL1       -0.0822
     11 C         140.0408  141.4459  169.5018 C.ar    1  UNL1        0.0447
     12 C         139.4528  140.1669  168.9840 C.ar    1  UNL1        0.0143
     13 C         139.3552  139.9305  167.5060 C.ar    1  UNL1        0.0013
     14 C         139.8456  140.9732  166.5457 C.ar    1  UNL1        0.0001
     15 C         140.4337  142.2522  167.0635 C.ar    1  UNL1        0.0013
     16 C         140.5313  142.4886  168.5415 C.ar    1  UNL1        0.0143
     17 C         141.4833  141.7651  171.6389 C.3     1  UNL1        0.1085
     18 N         140.1384  141.6823  170.9798 N.pl3   1  UNL1       -0.3313
     19 H         139.3198  141.7832  171.5173 H       1  UNL1        0.1469
@<TRIPOS>BOND
     1    17    18    1
     2    18    11    1
     3    11    12   ar
     4    12    13   ar
     5    13    14   ar
     6    14     1    1
     7     1     2    2
     8     2     3    1
     9     3     4   ar
    10     4     5    1
    11     4     6   ar
    12     6     7   ar
    13     7     8   ar
    14     8     9   ar
    15     9    10    1
    16    14    15   ar
    17    15    16   ar
    18    16    11   ar
    19     9     3   ar
    20    18    19    1
@<TRIPOS>MOLECULE
*****
 19 20 0 0 0
SMALL
GASTEIGER

@<TRIPOS>ATOM
      1 C         141.2140  140.3918  165.7573 C.2     1  UNL1        0.0001
      2 C         141.8207  140.2635  167.1231 C.2     1  UNL1        0.0031
      3 C         141.2341  141.0193  168.2784 C.ar    1  UNL1        0.0380
      4 C         139.8795  140.6497  168.8062 C.ar    1  UNL1        0.1409
      5 F         139.1115  139.5243  168.1786 F       1  UNL1       -0.2041
      6 C         139.2928  141.4055  169.9614 C.ar    1  UNL1        0.0297
      7 C         140.0608  142.5309  170.5890 C.ar    1  UNL1        0.0032
      8 C         141.4154  142.9005  170.0612 C.ar    1  UNL1        0.0115
      9 C         142.0020  142.1447  168.9059 C.ar    1  UNL1        0.0598
     10 CL        143.3565  142.5142  168.3781 Cl      1  UNL1       -0.0822
     11 C         142.9738  138.1244  162.2915 C.ar    1  UNL1        0.0447
     12 C         141.4970  138.0730  162.5491 C.ar    1  UNL1        0.0143
     13 C         140.9104  138.8288  163.7044 C.ar    1  UNL1        0.0013
     14 C         141.8006  139.6360  164.6021 C.ar    1  UNL1        0.0001
     15 C         143.2774  139.6875  164.3445 C.ar    1  UNL1        0.0013
     16 C         143.8640  138.9317  163.1892 C.ar    1  UNL1        0.0143
     17 C         142.9421  137.4820  159.7743 C.3     1  UNL1        0.1085
     18 N         143.5604  137.3687  161.1362 N.pl3   1  UNL1       -0.3313
     19 H         144.3513  136.7982  161.2718 H       1  UNL1        0.1469
@<TRIPOS>BOND
     1    17    18    1
     2    18    11    1
     3    11    12   ar
     4    12    13   ar
     5    13    14   ar
     6    14     1    1
     7     1     2    2
     8     2     3    1
     9     3     4   ar
    10     4     5    1
    11     4     6   ar
    12     6     7   ar
    13     7     8   ar
    14     8     9   ar
    15     9    10    1
    16    14    15   ar
    17    15    16   ar
    18    16    11   ar
    19     9     3   ar
    20    18    19    1
