@<TRIPOS>MOLECULE
*****
 33 35 0 0 0
SMALL
GASTEIGER

@<TRIPOS>ATOM
      1 N         141.6064  142.2451  163.3747 N.pl3   1  UNL1       -0.3046
      2 C         140.8714  143.5368  163.5776 C.3     1  UNL1        0.1081
      3 C         140.7668  144.5248  162.4537 C.3     1  UNL1        0.0938
      4 N         141.3972  144.2209  161.1269 N.3     1  UNL1       -0.2698
      5 C         142.1323  142.9291  160.9241 C.3     1  UNL1        0.0938
      6 C         142.2368  141.9413  162.0480 C.3     1  UNL1        0.1081
      7 C         141.2895  140.6218  166.9823 C.ar    1  UNL1        0.0515
      8 C         141.9202  139.2815  166.7464 C.ar    1  UNL1        0.0148
      9 C         142.4463  138.9290  165.3867 C.ar    1  UNL1        0.0025
     10 C         142.3417  139.9169  164.2628 C.ar    1  UNL1        0.0146
     11 C         141.7110  141.2572  164.4987 C.ar    1  UNL1        0.0492
     12 C         141.1849  141.6097  165.8584 C.ar    1  UNL1        0.0292
     13 C         138.9678  140.7021  170.2000 C.3     1  UNL1        0.0949
     14 C         139.4939  140.3496  168.8402 C.2     1  UNL1        0.2266
     15 O         138.7505  139.3723  167.9785 O.2     1  UNL1       -0.2748
     16 N         140.7633  140.9743  168.3421 N.am    1  UNL1       -0.2839
     17 H         141.2512  141.6157  168.9076 H       1  UNL1        0.1549
     18 C         141.2926  145.2088  160.0031 C.3     1  UNL1        0.0722
     19 C         140.0961  145.1919  159.0987 C.3     1  UNL1        0.0188
     20 C         139.8165  143.9891  158.2471 C.3     1  UNL1        0.0203
     21 C         138.9745  142.8697  158.7835 C.3     1  UNL1        0.0915
     22 N         138.3132  143.0042  160.1231 N.3     1  UNL1       -0.1794
     23 H         137.3169  143.1351  159.9478 H       1  UNL1        0.1488
     24 S         138.4339  141.9019  161.1333 S.O2    1  UNL1        0.0602
     25 O         139.2764  141.1148  160.1737 O.2     1  UNL1       -0.1530
     26 O         137.5915  142.6889  162.0929 O.2     1  UNL1       -0.1530
     27 C         138.5547  140.7996  162.1434 C.ar    1  UNL1        0.1219
     28 C         138.0614  141.0088  163.5444 C.ar    1  UNL1        0.0196
     29 C         138.1822  139.9064  164.5545 C.ar    1  UNL1       -0.0029
     30 C         138.7963  138.5949  164.1635 C.ar    1  UNL1       -0.0218
     31 C         138.9171  137.4926  165.1736 C.3     1  UNL1        0.0310
     32 C         139.2896  138.3857  162.7625 C.ar    1  UNL1       -0.0029
     33 C         139.1688  139.4880  161.7524 C.ar    1  UNL1        0.0196
@<TRIPOS>BOND
     1    13    14    1
     2    14    15    2
     3    14    16   am
     4    16     7    1
     5     7     8   ar
     6     8     9   ar
     7     9    10   ar
     8    10    11   ar
     9    11     1    1
    10     1     2    1
    11     2     3    1
    12     3     4    1
    13     4    18    1
    14    18    19    1
    15    19    20    1
    16    20    21    1
    17    21    22    1
    18    22    24    1
    19    24    25    2
    20    24    26    2
    21    24    27    1
    22    27    28   ar
    23    28    29   ar
    24    29    30   ar
    25    30    31    1
    26    30    32   ar
    27    32    33   ar
    28     4     5    1
    29     5     6    1
    30    11    12   ar
    31    12     7   ar
    32     6     1    1
    33    33    27   ar
    34    16    17    1
    35    22    23    1
@<TRIPOS>MOLECULE
*****
 33 35 0 0 0
SMALL
GASTEIGER

@<TRIPOS>ATOM
      1 N         142.9182  140.2111  163.8121 N.pl3   1  UNL1       -0.3046
      2 C         142.3550  141.3964  163.0856 C.3     1  UNL1        0.1081
      3 C         142.6118  141.5679  161.6177 C.3     1  UNL1        0.0938
      4 N         143.4317  140.5539  160.8763 N.3     1  UNL1       -0.2698
      5 C         143.9949  139.3685  161.6028 C.3     1  UNL1        0.0938
      6 C         143.7381  139.1971  163.0707 C.3     1  UNL1        0.1081
      7 C         141.5397  140.8526  167.4779 C.ar    1  UNL1        0.0515
      8 C         142.1478  139.6968  168.2157 C.ar    1  UNL1        0.0148
      9 C         143.0127  138.7124  167.4856 C.ar    1  UNL1        0.0025
     10 C         143.2695  138.8838  166.0178 C.ar    1  UNL1        0.0146
     11 C         142.6614  140.0396  165.2800 C.ar    1  UNL1        0.0492
     12 C         141.7965  141.0240  166.0101 C.ar    1  UNL1        0.0292
     13 C         140.4352  143.8480  169.8353 C.3     1  UNL1        0.0949
     14 C         141.3000  142.8636  169.1053 C.2     1  UNL1        0.2266
     15 O         142.7901  142.9059  169.2725 O.2     1  UNL1       -0.2748
     16 N         140.6749  141.8370  168.2080 N.am    1  UNL1       -0.2839
     17 H         139.6969  141.8092  168.0982 H       1  UNL1        0.1549
     18 C         143.6885  140.7253  159.4084 C.3     1  UNL1        0.0722
     19 C         142.7682  140.0925  158.4072 C.3     1  UNL1        0.0188
     20 C         141.3219  140.4878  158.3630 C.3     1  UNL1        0.0203
     21 C         140.2927  139.6456  159.0569 C.3     1  UNL1        0.0915
     22 N         140.7188  138.6187  160.0637 N.3     1  UNL1       -0.1794
     23 H         141.7363  138.6645  160.1184 H       1  UNL1        0.1488
     24 S         140.2057  138.6903  161.4714 S.O2    1  UNL1        0.0602
     25 O         139.4145  139.9154  161.1206 O.2     1  UNL1       -0.1530
     26 O         140.9968  137.4653  161.8222 O.2     1  UNL1       -0.1530
     27 C         139.6925  138.7621  162.8790 C.ar    1  UNL1        0.1219
     28 C         140.0081  137.6625  163.8493 C.ar    1  UNL1        0.0196
     29 C         139.4949  137.7343  165.2570 C.ar    1  UNL1       -0.0029
     30 C         138.6662  138.9056  165.6944 C.ar    1  UNL1       -0.0218
     31 C         138.1531  138.9773  167.1020 C.3     1  UNL1        0.0310
     32 C         138.3507  140.0051  164.7241 C.ar    1  UNL1       -0.0029
     33 C         138.8638  139.9334  163.3165 C.ar    1  UNL1        0.0196
@<TRIPOS>BOND
     1    13    14    1
     2    14    15    2
     3    14    16   am
     4    16     7    1
     5     7     8   ar
     6     8     9   ar
     7     9    10   ar
     8    10    11   ar
     9    11     1    1
    10     1     2    1
    11     2     3    1
    12     3     4    1
    13     4    18    1
    14    18    19    1
    15    19    20    1
    16    20    21    1
    17    21    22    1
    18    22    24    1
    19    24    25    2
    20    24    26    2
    21    24    27    1
    22    27    28   ar
    23    28    29   ar
    24    29    30   ar
    25    30    31    1
    26    30    32   ar
    27    32    33   ar
    28     4     5    1
    29     5     6    1
    30    11    12   ar
    31    12     7   ar
    32     6     1    1
    33    33    27   ar
    34    16    17    1
    35    22    23    1
@<TRIPOS>MOLECULE
*****
 33 35 0 0 0
SMALL
GASTEIGER

@<TRIPOS>ATOM
      1 N         139.7451  141.2937  161.2967 N.pl3   1  UNL1       -0.3046
      2 C         138.5977  142.0292  160.6702 C.3     1  UNL1        0.1081
      3 C         138.7418  142.6131  159.2960 C.3     1  UNL1        0.0938
      4 N         140.0333  142.4613  158.5483 N.3     1  UNL1       -0.2698
      5 C         141.1807  141.7257  159.1748 C.3     1  UNL1        0.0938
      6 C         141.0366  141.1419  160.5490 C.3     1  UNL1        0.1081
      7 C         140.5325  139.2399  164.6000 C.ar    1  UNL1        0.0515
      8 C         139.3129  139.5421  165.4192 C.ar    1  UNL1        0.0148
      9 C         138.2373  140.4282  164.8642 C.ar    1  UNL1        0.0025
     10 C         138.3814  141.0120  163.4901 C.ar    1  UNL1        0.0146
     11 C         139.6010  140.7098  162.6709 C.ar    1  UNL1        0.0492
     12 C         140.6766  139.8237  163.2259 C.ar    1  UNL1        0.0292
     13 C         143.7425  138.0428  166.6032 C.3     1  UNL1        0.0949
     14 C         142.6670  138.9289  166.0482 C.2     1  UNL1        0.2266
     15 O         142.6503  140.3902  166.3866 O.2     1  UNL1       -0.2748
     16 N         141.6081  138.3538  165.1549 N.am    1  UNL1       -0.2839
     17 H         141.6191  137.3947  164.9329 H       1  UNL1        0.1549
     18 C         140.1774  143.0452  157.1741 C.3     1  UNL1        0.0722
     19 C         139.5998  144.3953  156.8686 C.3     1  UNL1        0.0188
     20 C         140.2666  145.6325  157.3929 C.3     1  UNL1        0.0203
     21 C         140.2770  145.9117  158.8666 C.3     1  UNL1        0.0915
     22 N         141.4228  145.4390  159.7114 N.3     1  UNL1       -0.1794
     23 H         142.0791  146.2168  159.7792 H       1  UNL1        0.1488
     24 S         141.1748  144.9583  161.1105 S.O2    1  UNL1        0.0602
     25 O         142.5761  144.4273  161.1764 O.2     1  UNL1       -0.1530
     26 O         139.7735  145.4893  161.0447 O.2     1  UNL1       -0.1530
     27 C         140.9269  144.4776  162.5096 C.ar    1  UNL1        0.1219
     28 C         141.9452  143.6187  163.1990 C.ar    1  UNL1        0.0196
     29 C         141.6972  143.1380  164.5982 C.ar    1  UNL1       -0.0029
     30 C         140.4310  143.5162  165.3078 C.ar    1  UNL1       -0.0218
     31 C         140.1831  143.0355  166.7069 C.3     1  UNL1        0.0310
     32 C         139.4127  144.3751  164.6183 C.ar    1  UNL1       -0.0029
     33 C         139.6606  144.8558  163.2193 C.ar    1  UNL1        0.0196
@<TRIPOS>BOND
     1    13    14    1
     2    14    15    2
     3    14    16   am
     4    16     7    1
     5     7     8   ar
     6     8     9   ar
     7     9    10   ar
     8    10    11   ar
     9    11     1    1
    10     1     2    1
    11     2     3    1
    12     3     4    1
    13     4    18    1
    14    18    19    1
    15    19    20    1
    16    20    21    1
    17    21    22    1
    18    22    24    1
    19    24    25    2
    20    24    26    2
    21    24    27    1
    22    27    28   ar
    23    28    29   ar
    24    29    30   ar
    25    30    31    1
    26    30    32   ar
    27    32    33   ar
    28     4     5    1
    29     5     6    1
    30    11    12   ar
    31    12     7   ar
    32     6     1    1
    33    33    27   ar
    34    16    17    1
    35    22    23    1
@<TRIPOS>MOLECULE
*****
 33 35 0 0 0
SMALL
GASTEIGER

@<TRIPOS>ATOM
      1 N         141.5675  141.2695  163.6864 N.pl3   1  UNL1       -0.3046
      2 C         140.8126  142.5657  163.6828 C.3     1  UNL1        0.1081
      3 C         140.4345  143.2098  162.3819 C.3     1  UNL1        0.0938
      4 N         140.8115  142.5577  161.0847 N.3     1  UNL1       -0.2698
      5 C         141.5664  141.2615  161.0884 C.3     1  UNL1        0.0938
      6 C         141.9444  140.6174  162.3893 C.3     1  UNL1        0.1081
      7 C         142.0369  140.6820  167.5832 C.ar    1  UNL1        0.0515
      8 C         142.7016  139.3374  167.5891 C.ar    1  UNL1        0.0148
      9 C         142.9882  138.6367  166.2941 C.ar    1  UNL1        0.0025
     10 C         142.6102  139.2808  164.9932 C.ar    1  UNL1        0.0146
     11 C         141.9456  140.6254  164.9873 C.ar    1  UNL1        0.0492
     12 C         141.6589  141.3260  166.2823 C.ar    1  UNL1        0.0292
     13 C         142.4229  143.1094  170.6991 C.3     1  UNL1        0.0949
     14 C         142.7096  142.4087  169.4041 C.2     1  UNL1        0.2266
     15 O         143.9557  142.7343  168.6351 O.2     1  UNL1       -0.2748
     16 N         141.7502  141.3826  168.8782 N.am    1  UNL1       -0.2839
     17 H         140.9324  141.1689  169.3829 H       1  UNL1        0.1549
     18 C         140.4335  143.2017  159.7838 C.3     1  UNL1        0.0722
     19 C         139.1592  142.8108  159.0958 C.3     1  UNL1        0.0188
     20 C         139.0429  141.4668  158.4399 C.3     1  UNL1        0.0203
     21 C         138.0013  140.4928  158.9051 C.3     1  UNL1        0.0915
     22 N         138.4116  139.2450  159.6293 N.3     1  UNL1       -0.1794
     23 H         139.3485  139.0093  159.3022 H       1  UNL1        0.1488
     24 S         138.4596  139.2293  161.1285 S.O2    1  UNL1        0.0602
     25 O         139.5888  138.2430  161.0820 O.2     1  UNL1       -0.1530
     26 O         137.3304  140.2155  161.1750 O.2     1  UNL1       -0.1530
     27 C         138.5076  139.2135  162.6276 C.ar    1  UNL1        0.1219
     28 C         139.0712  138.0244  163.3475 C.ar    1  UNL1        0.0196
     29 C         139.1192  138.0087  164.8467 C.ar    1  UNL1       -0.0029
     30 C         138.6037  139.1821  165.6259 C.ar    1  UNL1       -0.0218
     31 C         138.6517  139.1664  167.1250 C.3     1  UNL1        0.0310
     32 C         138.0401  140.3713  164.9060 C.ar    1  UNL1       -0.0029
     33 C         137.9920  140.3870  163.4069 C.ar    1  UNL1        0.0196
@<TRIPOS>BOND
     1    13    14    1
     2    14    15    2
     3    14    16   am
     4    16     7    1
     5     7     8   ar
     6     8     9   ar
     7     9    10   ar
     8    10    11   ar
     9    11     1    1
    10     1     2    1
    11     2     3    1
    12     3     4    1
    13     4    18    1
    14    18    19    1
    15    19    20    1
    16    20    21    1
    17    21    22    1
    18    22    24    1
    19    24    25    2
    20    24    26    2
    21    24    27    1
    22    27    28   ar
    23    28    29   ar
    24    29    30   ar
    25    30    31    1
    26    30    32   ar
    27    32    33   ar
    28     4     5    1
    29     5     6    1
    30    11    12   ar
    31    12     7   ar
    32     6     1    1
    33    33    27   ar
    34    16    17    1
    35    22    23    1
@<TRIPOS>MOLECULE
*****
 33 35 0 0 0
SMALL
GASTEIGER

@<TRIPOS>ATOM
      1 N         139.0850  141.1623  163.8192 N.pl3   1  UNL1       -0.3046
      2 C         140.1549  142.0361  163.2347 C.3     1  UNL1        0.1081
      3 C         140.0404  142.5164  161.8183 C.3     1  UNL1        0.0938
      4 N         138.8559  142.1229  160.9863 N.3     1  UNL1       -0.2698
      5 C         137.7859  141.2491  161.5709 C.3     1  UNL1        0.0938
      6 C         137.9005  140.7688  162.9872 C.3     1  UNL1        0.1081
      7 C         140.4014  140.7325  167.5383 C.ar    1  UNL1        0.0515
      8 C         139.4285  139.7213  168.0683 C.ar    1  UNL1        0.0148
      9 C         138.3411  139.1904  167.1820 C.ar    1  UNL1        0.0025
     10 C         138.2266  139.6707  165.7656 C.ar    1  UNL1        0.0146
     11 C         139.1995  140.6819  165.2356 C.ar    1  UNL1        0.0492
     12 C         140.2869  141.2128  166.1220 C.ar    1  UNL1        0.0292
     13 C         142.3937  143.1032  170.0204 C.3     1  UNL1        0.0949
     14 C         141.3062  142.5723  169.1340 C.2     1  UNL1        0.2266
     15 O         140.0361  143.3505  168.9570 O.2     1  UNL1       -0.2748
     16 N         141.4889  141.2633  168.4247 N.am    1  UNL1       -0.2839
     17 H         142.3225  140.7526  168.5409 H       1  UNL1        0.1549
     18 C         138.7414  142.6032  159.5700 C.3     1  UNL1        0.0722
     19 C         139.3894  141.8289  158.4608 C.3     1  UNL1        0.0188
     20 C         139.0195  140.3931  158.2328 C.3     1  UNL1        0.0203
     21 C         139.9443  139.3002  158.6802 C.3     1  UNL1        0.0915
     22 N         139.5314  138.3740  159.7854 N.3     1  UNL1       -0.1794
     23 H         139.6028  137.4256  159.4169 H       1  UNL1        0.1488
     24 S         140.2699  138.3880  161.0910 S.O2    1  UNL1        0.0602
     25 O         141.4615  138.9937  160.4105 O.2     1  UNL1       -0.1530
     26 O         139.0783  137.7823  161.7716 O.2     1  UNL1       -0.1530
     27 C         141.0083  138.4021  162.3966 C.ar    1  UNL1        0.1219
     28 C         140.5118  137.5789  163.5480 C.ar    1  UNL1        0.0196
     29 C         141.2503  137.5930  164.8536 C.ar    1  UNL1       -0.0029
     30 C         142.4854  138.4302  165.0076 C.ar    1  UNL1       -0.0218
     31 C         143.2238  138.4442  166.3131 C.3     1  UNL1        0.0310
     32 C         142.9819  139.2533  163.8562 C.ar    1  UNL1       -0.0029
     33 C         142.2434  139.2393  162.5507 C.ar    1  UNL1        0.0196
@<TRIPOS>BOND
     1    13    14    1
     2    14    15    2
     3    14    16   am
     4    16     7    1
     5     7     8   ar
     6     8     9   ar
     7     9    10   ar
     8    10    11   ar
     9    11     1    1
    10     1     2    1
    11     2     3    1
    12     3     4    1
    13     4    18    1
    14    18    19    1
    15    19    20    1
    16    20    21    1
    17    21    22    1
    18    22    24    1
    19    24    25    2
    20    24    26    2
    21    24    27    1
    22    27    28   ar
    23    28    29   ar
    24    29    30   ar
    25    30    31    1
    26    30    32   ar
    27    32    33   ar
    28     4     5    1
    29     5     6    1
    30    11    12   ar
    31    12     7   ar
    32     6     1    1
    33    33    27   ar
    34    16    17    1
    35    22    23    1
@<TRIPOS>MOLECULE
*****
 33 35 0 0 0
SMALL
GASTEIGER

@<TRIPOS>ATOM
      1 N         141.7000  140.6853  162.7412 N.pl3   1  UNL1       -0.3046
      2 C         142.1393  139.6300  161.7700 C.3     1  UNL1        0.1081
      3 C         141.9782  139.8539  160.2955 C.3     1  UNL1        0.0938
      4 N         141.3776  141.1330  159.7923 N.3     1  UNL1       -0.2698
      5 C         140.9382  142.1883  160.7637 C.3     1  UNL1        0.0938
      6 C         141.0994  141.9644  162.2380 C.3     1  UNL1        0.1081
      7 C         141.8681  141.3850  166.6441 C.ar    1  UNL1        0.0515
      8 C         142.1834  140.0140  167.1645 C.ar    1  UNL1        0.0148
      9 C         142.3376  138.8667  166.2105 C.ar    1  UNL1        0.0025
     10 C         142.1765  139.0905  164.7361 C.ar    1  UNL1        0.0146
     11 C         141.8611  140.4615  164.2157 C.ar    1  UNL1        0.0492
     12 C         141.7070  141.6087  165.1697 C.ar    1  UNL1        0.0292
     13 C         140.5157  143.6254  169.6275 C.3     1  UNL1        0.0949
     14 C         140.6698  142.4782  168.6735 C.2     1  UNL1        0.2266
     15 O         139.7797  141.2769  168.7951 O.2     1  UNL1       -0.2748
     16 N         141.7140  142.5322  167.5980 N.am    1  UNL1       -0.2839
     17 H         142.2982  143.3206  167.5183 H       1  UNL1        0.1549
     18 C         141.2164  141.3568  158.3180 C.3     1  UNL1        0.0722
     19 C         139.9414  141.9379  157.7826 C.3     1  UNL1        0.0188
     20 C         138.7219  141.0747  157.6488 C.3     1  UNL1        0.0203
     21 C         138.0005  140.6003  158.8753 C.3     1  UNL1        0.0915
     22 N         138.4320  139.3360  159.5573 N.3     1  UNL1       -0.1794
     23 H         139.3873  139.1484  159.2527 H       1  UNL1        0.1488
     24 S         138.4311  139.2537  161.0551 S.O2    1  UNL1        0.0602
     25 O         137.7923  140.6088  161.1291 O.2     1  UNL1       -0.1530
     26 O         139.0699  137.8985  160.9811 O.2     1  UNL1       -0.1530
     27 C         138.4301  139.1715  162.5528 C.ar    1  UNL1        0.1219
     28 C         138.0320  140.3652  163.3692 C.ar    1  UNL1        0.0196
     29 C         138.0310  140.2829  164.8670 C.ar    1  UNL1       -0.0029
     30 C         138.4282  139.0070  165.5483 C.ar    1  UNL1       -0.0218
     31 C         138.4273  138.9248  167.0460 C.3     1  UNL1        0.0310
     32 C         138.8264  137.8133  164.7319 C.ar    1  UNL1       -0.0029
     33 C         138.8273  137.8955  163.2342 C.ar    1  UNL1        0.0196
@<TRIPOS>BOND
     1    13    14    1
     2    14    15    2
     3    14    16   am
     4    16     7    1
     5     7     8   ar
     6     8     9   ar
     7     9    10   ar
     8    10    11   ar
     9    11     1    1
    10     1     2    1
    11     2     3    1
    12     3     4    1
    13     4    18    1
    14    18    19    1
    15    19    20    1
    16    20    21    1
    17    21    22    1
    18    22    24    1
    19    24    25    2
    20    24    26    2
    21    24    27    1
    22    27    28   ar
    23    28    29   ar
    24    29    30   ar
    25    30    31    1
    26    30    32   ar
    27    32    33   ar
    28     4     5    1
    29     5     6    1
    30    11    12   ar
    31    12     7   ar
    32     6     1    1
    33    33    27   ar
    34    16    17    1
    35    22    23    1
@<TRIPOS>MOLECULE
*****
 33 35 0 0 0
SMALL
GASTEIGER

@<TRIPOS>ATOM
      1 N         139.0953  141.3564  163.8248 N.pl3   1  UNL1       -0.3046
      2 C         139.9018  140.6951  162.7467 C.3     1  UNL1        0.1081
      3 C         139.7546  141.1382  161.3212 C.3     1  UNL1        0.0938
      4 N         138.8009  142.2427  160.9738 N.3     1  UNL1       -0.2698
      5 C         137.9944  142.9040  162.0520 C.3     1  UNL1        0.0938
      6 C         138.1417  142.4609  163.4774 C.3     1  UNL1        0.1081
      7 C         140.3362  141.1891  167.5907 C.ar    1  UNL1        0.0515
      8 C         139.5370  140.0270  168.1012 C.ar    1  UNL1        0.0148
      9 C         138.5906  139.3079  167.1862 C.ar    1  UNL1        0.0025
     10 C         138.4433  139.7510  165.7607 C.ar    1  UNL1        0.0146
     11 C         139.2425  140.9132  165.2503 C.ar    1  UNL1        0.0492
     12 C         140.1890  141.6323  166.1653 C.ar    1  UNL1        0.0292
     13 C         143.5600  142.0195  169.7511 C.3     1  UNL1        0.0949
     14 C         142.6136  141.3005  168.8361 C.2     1  UNL1        0.2266
     15 O         142.9982  139.9736  168.2515 O.2     1  UNL1       -0.2748
     16 N         141.2827  141.9082  168.5057 N.am    1  UNL1       -0.2839
     17 H         141.0303  142.7790  168.8894 H       1  UNL1        0.1549
     18 C         138.6537  142.6859  159.5484 C.3     1  UNL1        0.0722
     19 C         139.8345  143.2440  158.8108 C.3     1  UNL1        0.0188
     20 C         140.1422  144.7102  158.8875 C.3     1  UNL1        0.0203
     21 C         141.4280  145.1754  159.5040 C.3     1  UNL1        0.0915
     22 N         141.5876  145.1758  160.9954 N.3     1  UNL1       -0.1794
     23 H         140.6501  145.2412  161.3919 H       1  UNL1        0.1488
     24 S         142.2669  144.0253  161.6773 S.O2    1  UNL1        0.0602
     25 O         143.2042  143.8893  160.5142 O.2     1  UNL1       -0.1530
     26 O         141.3296  144.1613  162.8405 O.2     1  UNL1       -0.1530
     27 C         142.9462  142.8748  162.3592 C.ar    1  UNL1        0.1219
     28 C         142.8746  142.7391  163.8513 C.ar    1  UNL1        0.0196
     29 C         143.5539  141.5885  164.5332 C.ar    1  UNL1       -0.0029
     30 C         144.3047  140.5738  163.7229 C.ar    1  UNL1       -0.0218
     31 C         144.9840  139.4234  164.4048 C.3     1  UNL1        0.0310
     32 C         144.3763  140.7096  162.2308 C.ar    1  UNL1       -0.0029
     33 C         143.6970  141.8601  161.5489 C.ar    1  UNL1        0.0196
@<TRIPOS>BOND
     1    13    14    1
     2    14    15    2
     3    14    16   am
     4    16     7    1
     5     7     8   ar
     6     8     9   ar
     7     9    10   ar
     8    10    11   ar
     9    11     1    1
    10     1     2    1
    11     2     3    1
    12     3     4    1
    13     4    18    1
    14    18    19    1
    15    19    20    1
    16    20    21    1
    17    21    22    1
    18    22    24    1
    19    24    25    2
    20    24    26    2
    21    24    27    1
    22    27    28   ar
    23    28    29   ar
    24    29    30   ar
    25    30    31    1
    26    30    32   ar
    27    32    33   ar
    28     4     5    1
    29     5     6    1
    30    11    12   ar
    31    12     7   ar
    32     6     1    1
    33    33    27   ar
    34    16    17    1
    35    22    23    1
@<TRIPOS>MOLECULE
*****
 33 35 0 0 0
SMALL
GASTEIGER

@<TRIPOS>ATOM
      1 N         141.0205  140.8141  161.8783 N.pl3   1  UNL1       -0.3046
      2 C         142.1002  140.8041  160.8372 C.3     1  UNL1        0.1081
      3 C         141.8805  141.4913  159.5220 C.3     1  UNL1        0.0938
      4 N         140.5809  142.1885  159.2481 N.3     1  UNL1       -0.2698
      5 C         139.5011  142.1985  160.2893 C.3     1  UNL1        0.0938
      6 C         139.7209  141.5113  161.6044 C.3     1  UNL1        0.1081
      7 C         140.3471  139.3663  165.5116 C.ar    1  UNL1        0.0515
      8 C         141.6797  138.7526  165.8236 C.ar    1  UNL1        0.0148
      9 C         142.7926  138.8261  164.8206 C.ar    1  UNL1        0.0025
     10 C         142.5729  139.5132  163.5055 C.ar    1  UNL1        0.0146
     11 C         141.2403  140.1269  163.1935 C.ar    1  UNL1        0.0492
     12 C         140.1274  140.0534  164.1965 C.ar    1  UNL1        0.0292
     13 C         137.1583  138.0697  167.4865 C.3     1  UNL1        0.0949
     14 C         138.2712  138.1432  166.4835 C.2     1  UNL1        0.2266
     15 O         138.4211  137.0670  165.4493 O.2     1  UNL1       -0.2748
     16 N         139.2342  139.2928  166.5146 N.am    1  UNL1       -0.2839
     17 H         139.1358  139.9991  167.1933 H       1  UNL1        0.1549
     18 C         140.3611  142.8757  157.9331 C.3     1  UNL1        0.0722
     19 C         140.8237  144.2893  157.7390 C.3     1  UNL1        0.0188
     20 C         140.2349  145.3917  158.5686 C.3     1  UNL1        0.0203
     21 C         140.6947  145.5942  159.9819 C.3     1  UNL1        0.0915
     22 N         142.0278  145.0643  160.4201 N.3     1  UNL1       -0.1794
     23 H         142.6843  145.8435  160.3733 H       1  UNL1        0.1488
     24 S         142.1806  144.4504  161.7802 S.O2    1  UNL1        0.0602
     25 O         140.8026  144.9169  162.1455 O.2     1  UNL1       -0.1530
     26 O         143.5586  143.9840  161.4150 O.2     1  UNL1       -0.1530
     27 C         142.3334  143.8366  163.1403 C.ar    1  UNL1        0.1219
     28 C         143.6580  143.2760  163.5657 C.ar    1  UNL1        0.0196
     29 C         143.8108  142.6622  164.9258 C.ar    1  UNL1       -0.0029
     30 C         142.6389  142.6090  165.8606 C.ar    1  UNL1       -0.0218
     31 C         142.7917  141.9953  167.2207 C.3     1  UNL1        0.0310
     32 C         141.3142  143.1697  165.4352 C.ar    1  UNL1       -0.0029
     33 C         141.1614  143.7835  164.0752 C.ar    1  UNL1        0.0196
@<TRIPOS>BOND
     1    13    14    1
     2    14    15    2
     3    14    16   am
     4    16     7    1
     5     7     8   ar
     6     8     9   ar
     7     9    10   ar
     8    10    11   ar
     9    11     1    1
    10     1     2    1
    11     2     3    1
    12     3     4    1
    13     4    18    1
    14    18    19    1
    15    19    20    1
    16    20    21    1
    17    21    22    1
    18    22    24    1
    19    24    25    2
    20    24    26    2
    21    24    27    1
    22    27    28   ar
    23    28    29   ar
    24    29    30   ar
    25    30    31    1
    26    30    32   ar
    27    32    33   ar
    28     4     5    1
    29     5     6    1
    30    11    12   ar
    31    12     7   ar
    32     6     1    1
    33    33    27   ar
    34    16    17    1
    35    22    23    1
@<TRIPOS>MOLECULE
*****
 33 35 0 0 0
SMALL
GASTEIGER

@<TRIPOS>ATOM
      1 N         141.8760  141.4307  163.2116 N.pl3   1  UNL1       -0.3046
      2 C         141.6460  142.4200  162.1078 C.3     1  UNL1        0.1081
      3 C         142.1615  142.1374  160.7278 C.3     1  UNL1        0.0938
      4 N         142.9070  140.8654  160.4516 N.3     1  UNL1       -0.2698
      5 C         143.1371  139.8761  161.5554 C.3     1  UNL1        0.0938
      6 C         142.6216  140.1588  162.9354 C.3     1  UNL1        0.1081
      7 C         141.0739  141.0059  167.0750 C.ar    1  UNL1        0.0515
      8 C         140.3296  142.2785  167.3516 C.ar    1  UNL1        0.0148
      9 C         140.1009  143.2686  166.2482 C.ar    1  UNL1        0.0025
     10 C         140.6163  142.9860  164.8682 C.ar    1  UNL1        0.0146
     11 C         141.3605  141.7134  164.5916 C.ar    1  UNL1        0.0492
     12 C         141.5893  140.7233  165.6951 C.ar    1  UNL1        0.0292
     13 C         142.6298  139.2532  170.2777 C.3     1  UNL1        0.0949
     14 C         142.4010  140.2433  169.1743 C.2     1  UNL1        0.2266
     15 O         143.2707  141.4607  169.0668 O.2     1  UNL1       -0.2748
     16 N         141.3026  140.0159  168.1784 N.am    1  UNL1       -0.2839
     17 H         140.7319  139.2168  168.2490 H       1  UNL1        0.1549
     18 C         143.4225  140.5828  159.0716 C.3     1  UNL1        0.0722
     19 C         143.0001  139.3350  158.3543 C.3     1  UNL1        0.0188
     20 C         141.5493  139.0946  158.0584 C.3     1  UNL1        0.0203
     21 C         140.6449  138.5572  159.1276 C.3     1  UNL1        0.0915
     22 N         139.6156  139.4485  159.7570 N.3     1  UNL1       -0.1794
     23 H         138.7433  139.2936  159.2515 H       1  UNL1        0.1488
     24 S         139.2995  139.3146  161.2172 S.O2    1  UNL1        0.0602
     25 O         139.8485  137.9188  161.2080 O.2     1  UNL1       -0.1530
     26 O         138.7505  140.7105  161.2264 O.2     1  UNL1       -0.1530
     27 C         138.9835  139.1807  162.6774 C.ar    1  UNL1        0.1219
     28 C         139.3630  137.9311  163.4153 C.ar    1  UNL1        0.0196
     29 C         139.0469  137.7972  164.8756 C.ar    1  UNL1       -0.0029
     30 C         138.3513  138.9128  165.5978 C.ar    1  UNL1       -0.0218
     31 C         138.0353  138.7789  167.0579 C.3     1  UNL1        0.0310
     32 C         137.9718  140.1624  164.8598 C.ar    1  UNL1       -0.0029
     33 C         138.2879  140.2963  163.3996 C.ar    1  UNL1        0.0196
@<TRIPOS>BOND
     1    13    14    1
     2    14    15    2
     3    14    16   am
     4    16     7    1
     5     7     8   ar
     6     8     9   ar
     7     9    10   ar
     8    10    11   ar
     9    11     1    1
    10     1     2    1
    11     2     3    1
    12     3     4    1
    13     4    18    1
    14    18    19    1
    15    19    20    1
    16    20    21    1
    17    21    22    1
    18    22    24    1
    19    24    25    2
    20    24    26    2
    21    24    27    1
    22    27    28   ar
    23    28    29   ar
    24    29    30   ar
    25    30    31    1
    26    30    32   ar
    27    32    33   ar
    28     4     5    1
    29     5     6    1
    30    11    12   ar
    31    12     7   ar
    32     6     1    1
    33    33    27   ar
    34    16    17    1
    35    22    23    1
