@<TRIPOS>MOLECULE
*****
 41 45 0 0 0
SMALL
GASTEIGER

@<TRIPOS>ATOM
      1 C         138.5806  141.8619  159.9379 C.3     1  UNL1        0.0546
      2 C         138.0887  140.5027  159.5372 C.3     1  UNL1        0.0180
      3 C         139.1848  139.8193  158.7746 C.3     1  UNL1        0.0311
      4 C         139.5583  138.5569  158.0557 C.3     1  UNL1        0.0955
      5 N         140.9584  138.7136  157.5407 N.am    1  UNL1       -0.2637
      6 C         141.7310  137.6906  156.7617 C.2     1  UNL1        0.3039
      7 O         143.1299  137.9905  156.3111 O.2     1  UNL1       -0.2526
      8 N         141.1047  136.3678  156.4335 N.am    1  UNL1       -0.2904
      9 C         141.4503  140.0729  157.9413 C.3     1  UNL1        0.1035
     10 C         140.3542  140.7562  158.7040 C.3     1  UNL1        0.0902
     11 C         139.9807  142.0186  159.4229 C.3     1  UNL1        0.0261
     12 H         140.1865  136.1710  156.7293 H       1  UNL1        0.1509
     13 C         141.5234  141.6931  158.6333 C.2     1  UNL1        0.2267
     14 O         141.6554  142.6422  157.4793 O.2     1  UNL1       -0.2748
     15 N         142.5608  141.6809  159.7168 N.am    1  UNL1       -0.2750
     16 C         143.7301  142.6178  159.6461 C.3     1  UNL1        0.1000
     17 C         144.7674  142.6056  160.7295 C.3     1  UNL1        0.0670
     18 C         144.6354  141.6565  161.8835 C.ar    1  UNL1        0.0583
     19 N         145.6728  141.6443  162.9670 N.ar    1  UNL1       -0.2484
     20 C         145.5409  140.6952  164.1210 C.ar    1  UNL1        0.1023
     21 C         144.3715  139.7583  164.1916 C.ar    1  UNL1        0.0902
     22 C         143.3342  139.7705  163.1082 C.ar    1  UNL1        0.0040
     23 C         143.4662  140.7196  161.9542 C.ar    1  UNL1        0.0113
     24 C         142.4289  140.7318  160.8708 C.3     1  UNL1        0.1213
     25 C         144.2396  138.8092  165.3456 C.3     1  UNL1        0.4200
     26 F         144.1077  137.8601  166.4997 F       1  UNL1       -0.1658
     27 F         142.7503  138.9860  165.3208 F       1  UNL1       -0.1658
     28 F         145.7289  138.6324  165.3705 F       1  UNL1       -0.1658
     29 C         141.8773  135.3449  155.6546 C.3     1  UNL1        0.0732
     30 C         142.8476  134.4426  156.3577 C.3     1  UNL1        0.0213
     31 C         141.6795  135.2242  154.1726 C.3     1  UNL1        0.0213
     32 N         137.8080  142.8849  160.7168 N.3     1  UNL1       -0.2975
     33 H         137.9014  143.7685  160.2160 H       1  UNL1        0.1232
     34 C         138.8725  144.4271  162.5163 C.3     1  UNL1        0.1591
     35 C         139.2240  144.7018  163.9485 C.3     1  UNL1        0.1729
     36 O         138.8625  143.7091  165.0132 O.3     1  UNL1       -0.3511
     37 C         138.1495  142.4415  164.6458 C.3     1  UNL1        0.1437
     38 C         137.7980  142.1668  163.2137 C.3     1  UNL1        0.0503
     39 C         138.1595  143.1596  162.1489 C.3     1  UNL1        0.0865
     40 C         140.5940  145.3804  160.8199 C.3     1  UNL1        0.1742
     41 O         139.2340  145.4199  161.4516 O.3     1  UNL1       -0.3496
@<TRIPOS>BOND
     1    40    41    1
     2    41    34    1
     3    34    35    1
     4    35    36    1
     5    36    37    1
     6    37    38    1
     7    38    39    1
     8    39    32    1
     9     1    32    1
    10     1     2    1
    11     3     2    1
    12     3     4    1
    13     4     5    1
    14     5     6   am
    15     6     7    2
    16     6     8   am
    17     8    29    1
    18    29    30    1
    19    29    31    1
    20     5     9    1
    21     9    10    1
    22    10    13    1
    23    13    14    2
    24    13    15   am
    25    15    16    1
    26    16    17    1
    27    17    18    1
    28    18    19   ar
    29    19    20   ar
    30    20    21   ar
    31    21    25    1
    32    25    26    1
    33    25    27    1
    34    25    28    1
    35    21    22   ar
    36    22    23   ar
    37    23    24    1
    38    10    11    1
    39    39    34    1
    40    11     1    1
    41    10     3    1
    42    24    15    1
    43    23    18   ar
    44    32    33    1
    45     8    12    1
@<TRIPOS>MOLECULE
*****
 41 45 0 0 0
SMALL
GASTEIGER

@<TRIPOS>ATOM
      1 C         141.5966  143.9489  160.3443 C.3     1  UNL1        0.0546
      2 C         140.2848  144.4856  159.8532 C.3     1  UNL1        0.0180
      3 C         139.6179  143.4119  159.0454 C.3     1  UNL1        0.0311
      4 C         138.3951  143.0800  158.2426 C.3     1  UNL1        0.0955
      5 N         138.5389  141.6747  157.7383 N.am    1  UNL1       -0.2637
      6 C         137.5454  140.9357  156.8915 C.2     1  UNL1        0.3039
      7 O         137.8278  139.5268  156.4611 O.2     1  UNL1       -0.2526
      8 N         136.2696  141.6057  156.4752 N.am    1  UNL1       -0.2904
      9 C         139.8507  141.1380  158.2294 C.3     1  UNL1        0.1035
     10 C         140.5176  142.2116  159.0372 C.3     1  UNL1        0.0902
     11 C         141.7404  142.5435  159.8399 C.3     1  UNL1        0.0261
     12 H         136.0842  142.5304  156.7577 H       1  UNL1        0.1509
     13 C         141.4172  141.0114  159.0290 C.2     1  UNL1        0.2267
     14 O         142.3857  140.8077  157.9018 O.2     1  UNL1       -0.2748
     15 N         141.3484  140.0149  160.1481 N.am    1  UNL1       -0.2750
     16 C         142.2481  138.8147  160.1399 C.3     1  UNL1        0.1000
     17 C         142.1793  137.8183  161.2590 C.3     1  UNL1        0.0670
     18 C         141.2108  138.0220  162.3862 C.ar    1  UNL1        0.0583
     19 N         141.1420  137.0255  163.5052 N.ar    1  UNL1       -0.2484
     20 C         140.1735  137.2292  164.6324 C.ar    1  UNL1        0.1023
     21 C         139.2739  138.4295  164.6405 C.ar    1  UNL1        0.0902
     22 C         139.3427  139.4259  163.5215 C.ar    1  UNL1        0.0040
     23 C         140.3111  139.2222  162.3943 C.ar    1  UNL1        0.0113
     24 C         140.3800  140.2186  161.2753 C.3     1  UNL1        0.1213
     25 C         138.3054  138.6332  165.7677 C.3     1  UNL1        0.4200
     26 F         137.3369  138.8369  166.8949 F       1  UNL1       -0.1658
     27 F         138.2978  140.1081  165.4946 F       1  UNL1       -0.1658
     28 F         138.3129  137.1583  166.0408 F       1  UNL1       -0.1658
     29 C         135.2761  140.8668  155.6285 C.3     1  UNL1        0.0732
     30 C         135.4221  140.8587  154.1356 C.3     1  UNL1        0.0213
     31 C         134.1367  140.1359  156.2746 C.3     1  UNL1        0.0213
     32 N         142.5901  144.6878  161.1910 N.3     1  UNL1       -0.2975
     33 H         143.3180  145.0273  160.5623 H       1  UNL1        0.1232
     34 C         142.8161  144.1812  163.7292 C.3     1  UNL1        0.1591
     35 C         143.5114  143.4770  164.8564 C.3     1  UNL1        0.1729
     36 O         144.6760  142.5753  164.5728 O.3     1  UNL1       -0.3511
     37 C         145.1454  142.3778  163.1618 C.3     1  UNL1        0.1437
     38 C         144.4501  143.0819  162.0346 C.3     1  UNL1        0.0503
     39 C         143.2854  143.9837  162.3183 C.3     1  UNL1        0.0865
     40 C         140.2582  144.5269  164.0262 C.3     1  UNL1        0.1742
     41 O         141.6514  145.0828  164.0128 O.3     1  UNL1       -0.3496
@<TRIPOS>BOND
     1    40    41    1
     2    41    34    1
     3    34    35    1
     4    35    36    1
     5    36    37    1
     6    37    38    1
     7    38    39    1
     8    39    32    1
     9     1    32    1
    10     1     2    1
    11     3     2    1
    12     3     4    1
    13     4     5    1
    14     5     6   am
    15     6     7    2
    16     6     8   am
    17     8    29    1
    18    29    30    1
    19    29    31    1
    20     5     9    1
    21     9    10    1
    22    10    13    1
    23    13    14    2
    24    13    15   am
    25    15    16    1
    26    16    17    1
    27    17    18    1
    28    18    19   ar
    29    19    20   ar
    30    20    21   ar
    31    21    25    1
    32    25    26    1
    33    25    27    1
    34    25    28    1
    35    21    22   ar
    36    22    23   ar
    37    23    24    1
    38    10    11    1
    39    39    34    1
    40    11     1    1
    41    10     3    1
    42    24    15    1
    43    23    18   ar
    44    32    33    1
    45     8    12    1
@<TRIPOS>MOLECULE
*****
 41 45 0 0 0
SMALL
GASTEIGER

@<TRIPOS>ATOM
      1 C         140.0404  141.0489  158.8466 C.3     1  UNL1        0.0546
      2 C         139.2682  140.1906  157.8891 C.3     1  UNL1        0.0180
      3 C         140.1202  139.0076  157.5362 C.3     1  UNL1        0.0311
      4 C         140.1695  137.7460  156.7264 C.3     1  UNL1        0.0955
      5 N         141.4989  137.0935  156.9653 N.am    1  UNL1       -0.2637
      6 C         141.9727  135.8082  156.3540 C.2     1  UNL1        0.3039
      7 O         143.3345  135.2757  156.6887 O.2     1  UNL1       -0.2526
      8 N         141.0848  135.0555  155.4080 N.am    1  UNL1       -0.2904
      9 C         142.2711  137.9518  157.9228 C.3     1  UNL1        0.1035
     10 C         141.4191  139.1348  158.2757 C.3     1  UNL1        0.0902
     11 C         141.3698  140.3964  159.0855 C.3     1  UNL1        0.0261
     12 H         140.1910  135.4049  155.1883 H       1  UNL1        0.1509
     13 C         142.7179  139.2620  159.0151 C.2     1  UNL1        0.2267
     14 O         143.9942  139.4793  158.2575 O.2     1  UNL1       -0.2748
     15 N         142.7406  139.1719  160.5123 N.am    1  UNL1       -0.2750
     16 C         144.0394  139.2991  161.2517 C.3     1  UNL1        0.1000
     17 C         144.0620  139.2090  162.7488 C.3     1  UNL1        0.0670
     18 C         142.7858  138.9918  163.5065 C.ar    1  UNL1        0.0583
     19 N         142.8084  138.9017  165.0037 N.ar    1  UNL1       -0.2484
     20 C         141.5322  138.6844  165.7613 C.ar    1  UNL1        0.1023
     21 C         140.2333  138.5572  165.0218 C.ar    1  UNL1        0.0902
     22 C         140.2107  138.6473  163.5247 C.ar    1  UNL1        0.0040
     23 C         141.4870  138.8645  162.7670 C.ar    1  UNL1        0.0113
     24 C         141.4644  138.9546  161.2700 C.3     1  UNL1        0.1213
     25 C         138.9571  138.3399  165.7794 C.3     1  UNL1        0.4200
     26 F         137.6809  138.1226  166.5371 F       1  UNL1       -0.1658
     27 F         139.3190  139.4592  166.7101 F       1  UNL1       -0.1658
     28 F         138.5952  137.2206  164.8488 F       1  UNL1       -0.1658
     29 C         141.5587  133.7703  154.7967 C.3     1  UNL1        0.0732
     30 C         141.5990  132.5177  155.6210 C.3     1  UNL1        0.0213
     31 C         141.9923  133.7376  153.3611 C.3     1  UNL1        0.0213
     32 N         139.5666  142.3342  159.4580 N.3     1  UNL1       -0.2975
     33 H         140.3910  142.9210  159.5859 H       1  UNL1        0.1232
     34 C         138.7123  143.5777  161.5731 C.3     1  UNL1        0.1591
     35 C         137.9849  143.5610  162.8848 C.3     1  UNL1        0.1729
     36 O         137.3846  142.2839  163.3932 O.3     1  UNL1       -0.3511
     37 C         137.5115  141.0234  162.5899 C.3     1  UNL1        0.1437
     38 C         138.2389  141.0402  161.2781 C.3     1  UNL1        0.0503
     39 C         138.8392  142.3174  160.7697 C.3     1  UNL1        0.0865
     40 C         139.7812  145.9008  162.0324 C.3     1  UNL1        0.1742
     41 O         139.3126  144.8548  161.0647 O.3     1  UNL1       -0.3496
@<TRIPOS>BOND
     1    40    41    1
     2    41    34    1
     3    34    35    1
     4    35    36    1
     5    36    37    1
     6    37    38    1
     7    38    39    1
     8    39    32    1
     9     1    32    1
    10     1     2    1
    11     3     2    1
    12     3     4    1
    13     4     5    1
    14     5     6   am
    15     6     7    2
    16     6     8   am
    17     8    29    1
    18    29    30    1
    19    29    31    1
    20     5     9    1
    21     9    10    1
    22    10    13    1
    23    13    14    2
    24    13    15   am
    25    15    16    1
    26    16    17    1
    27    17    18    1
    28    18    19   ar
    29    19    20   ar
    30    20    21   ar
    31    21    25    1
    32    25    26    1
    33    25    27    1
    34    25    28    1
    35    21    22   ar
    36    22    23   ar
    37    23    24    1
    38    10    11    1
    39    39    34    1
    40    11     1    1
    41    10     3    1
    42    24    15    1
    43    23    18   ar
    44    32    33    1
    45     8    12    1
@<TRIPOS>MOLECULE
*****
 41 45 0 0 0
SMALL
GASTEIGER

@<TRIPOS>ATOM
      1 C         138.7303  141.7714  159.8018 C.3     1  UNL1        0.0546
      2 C         138.1792  140.7898  158.8105 C.3     1  UNL1        0.0180
      3 C         139.2845  139.8531  158.4220 C.3     1  UNL1        0.0311
      4 C         139.6270  138.6676  157.5693 C.3     1  UNL1        0.0955
      5 N         141.0730  138.3375  157.7935 N.am    1  UNL1       -0.2637
      6 C         141.8341  137.2218  157.1410 C.2     1  UNL1        0.3039
      7 O         143.2836  137.0126  157.4653 O.2     1  UNL1       -0.2526
      8 N         141.1458  136.3152  156.1641 N.am    1  UNL1       -0.2904
      9 C         141.6241  139.3191  158.7849 C.3     1  UNL1        0.1035
     10 C         140.5188  140.2558  159.1733 C.3     1  UNL1        0.0902
     11 C         140.1763  141.4413  160.0261 C.3     1  UNL1        0.0261
     12 H         140.1944  136.4525  155.9512 H       1  UNL1        0.1509
     13 C         141.7531  140.6584  159.9246 C.2     1  UNL1        0.2267
     14 O         142.9344  141.2121  159.1844 O.2     1  UNL1       -0.2748
     15 N         141.8060  140.5074  161.4161 N.am    1  UNL1       -0.2750
     16 C         143.0402  140.9101  162.1674 C.3     1  UNL1        0.1000
     17 C         143.0931  140.7590  163.6588 C.3     1  UNL1        0.0670
     18 C         141.9117  140.2054  164.3989 C.ar    1  UNL1        0.0583
     19 N         141.9647  140.0543  165.8904 N.ar    1  UNL1       -0.2484
     20 C         140.7833  139.5007  166.6305 C.ar    1  UNL1        0.1023
     21 C         139.5490  139.0980  165.8792 C.ar    1  UNL1        0.0902
     22 C         139.4961  139.2490  164.3878 C.ar    1  UNL1        0.0040
     23 C         140.6775  139.8027  163.6476 C.ar    1  UNL1        0.0113
     24 C         140.6246  139.9537  162.1562 C.3     1  UNL1        0.1213
     25 C         138.3676  138.5443  166.6193 C.3     1  UNL1        0.4200
     26 F         137.1863  137.9906  167.3594 F       1  UNL1       -0.1658
     27 F         138.1595  137.5334  165.5308 F       1  UNL1       -0.1658
     28 F         138.5758  139.5552  167.7078 F       1  UNL1       -0.1658
     29 C         141.9069  135.1996  155.5116 C.3     1  UNL1        0.0732
     30 C         142.3720  135.3386  154.0922 C.3     1  UNL1        0.0213
     31 C         142.2030  133.9448  156.2783 C.3     1  UNL1        0.0213
     32 N         137.9692  142.8871  160.4544 N.3     1  UNL1       -0.2975
     33 H         138.2292  143.7450  159.9677 H       1  UNL1        0.1232
     34 C         138.8108  144.4118  162.3823 C.3     1  UNL1        0.1591
     35 C         138.9799  144.6776  163.8489 C.3     1  UNL1        0.1729
     36 O         138.4763  143.6847  164.8540 O.3     1  UNL1       -0.3511
     37 C         137.8036  142.4258  164.3926 C.3     1  UNL1        0.1437
     38 C         137.6345  142.1599  162.9261 C.3     1  UNL1        0.0503
     39 C         138.1382  143.1530  161.9209 C.3     1  UNL1        0.0865
     40 C         140.6909  145.2553  160.8000 C.3     1  UNL1        0.1742
     41 O         139.3144  145.4047  161.3772 O.3     1  UNL1       -0.3496
@<TRIPOS>BOND
     1    40    41    1
     2    41    34    1
     3    34    35    1
     4    35    36    1
     5    36    37    1
     6    37    38    1
     7    38    39    1
     8    39    32    1
     9     1    32    1
    10     1     2    1
    11     3     2    1
    12     3     4    1
    13     4     5    1
    14     5     6   am
    15     6     7    2
    16     6     8   am
    17     8    29    1
    18    29    30    1
    19    29    31    1
    20     5     9    1
    21     9    10    1
    22    10    13    1
    23    13    14    2
    24    13    15   am
    25    15    16    1
    26    16    17    1
    27    17    18    1
    28    18    19   ar
    29    19    20   ar
    30    20    21   ar
    31    21    25    1
    32    25    26    1
    33    25    27    1
    34    25    28    1
    35    21    22   ar
    36    22    23   ar
    37    23    24    1
    38    10    11    1
    39    39    34    1
    40    11     1    1
    41    10     3    1
    42    24    15    1
    43    23    18   ar
    44    32    33    1
    45     8    12    1
@<TRIPOS>MOLECULE
*****
 41 45 0 0 0
SMALL
GASTEIGER

@<TRIPOS>ATOM
      1 C         139.3889  142.6722  159.8848 C.3     1  UNL1        0.0546
      2 C         140.2378  143.6789  159.1666 C.3     1  UNL1        0.0180
      3 C         141.4223  142.9604  158.5914 C.3     1  UNL1        0.0311
      4 C         142.6789  143.1385  157.7920 C.3     1  UNL1        0.0955
      5 N         143.3387  141.7978  157.6607 N.am    1  UNL1       -0.2637
      6 C         144.6221  141.5137  156.9380 C.2     1  UNL1        0.3039
      7 O         145.1626  140.1152  156.8909 O.2     1  UNL1       -0.2526
      8 N         145.3650  142.6280  156.2626 N.am    1  UNL1       -0.2904
      9 C         142.4898  140.7911  158.3790 C.3     1  UNL1        0.1035
     10 C         141.3054  141.5096  158.9542 C.3     1  UNL1        0.0902
     11 C         140.0487  141.3315  159.7535 C.3     1  UNL1        0.0261
     12 H         145.0103  143.5459  156.2935 H       1  UNL1        0.1509
     13 C         141.1884  140.0589  159.3169 C.2     1  UNL1        0.2267
     14 O         140.7919  139.0549  158.2754 O.2     1  UNL1       -0.2748
     15 N         141.4681  139.6120  160.7213 N.am    1  UNL1       -0.2750
     16 C         141.3511  138.1613  161.0841 C.3     1  UNL1        0.1000
     17 C         141.6308  137.7145  162.4884 C.3     1  UNL1        0.0670
     18 C         142.0273  138.7184  163.5299 C.ar    1  UNL1        0.0583
     19 N         142.3069  138.2716  164.9343 N.ar    1  UNL1       -0.2484
     20 C         142.7035  139.2755  165.9759 C.ar    1  UNL1        0.1023
     21 C         142.8204  140.7263  165.6130 C.ar    1  UNL1        0.0902
     22 C         142.5408  141.1731  164.2087 C.ar    1  UNL1        0.0040
     23 C         142.1442  140.1692  163.1672 C.ar    1  UNL1        0.0113
     24 C         141.8646  140.6160  161.7629 C.3     1  UNL1        0.1213
     25 C         143.2169  141.7303  166.6546 C.3     1  UNL1        0.4200
     26 F         143.6134  142.7342  167.6962 F       1  UNL1       -0.1658
     27 F         143.5733  142.7092  165.5754 F       1  UNL1       -0.1658
     28 F         142.8605  140.7514  167.7338 F       1  UNL1       -0.1658
     29 C         146.6484  142.3439  155.5399 C.3     1  UNL1        0.0732
     30 C         146.6320  142.0525  154.0685 C.3     1  UNL1        0.0213
     31 C         147.9482  142.3511  156.2886 C.3     1  UNL1        0.0213
     32 N         138.1055  142.9563  160.6075 N.3     1  UNL1       -0.2975
     33 H         137.7704  143.8583  160.2691 H       1  UNL1        0.1232
     34 C         138.2917  144.3353  162.8016 C.3     1  UNL1        0.1591
     35 C         138.2735  144.4011  164.3000 C.3     1  UNL1        0.1729
     36 O         138.0508  143.1538  165.1029 O.3     1  UNL1       -0.3511
     37 C         137.8464  141.8406  164.4073 C.3     1  UNL1        0.1437
     38 C         137.8646  141.7748  162.9088 C.3     1  UNL1        0.0503
     39 C         138.0873  143.0222  162.1060 C.3     1  UNL1        0.0865
     40 C         139.8960  146.1507  161.8631 C.3     1  UNL1        0.1742
     41 O         138.5143  145.5826  161.9987 O.3     1  UNL1       -0.3496
@<TRIPOS>BOND
     1    40    41    1
     2    41    34    1
     3    34    35    1
     4    35    36    1
     5    36    37    1
     6    37    38    1
     7    38    39    1
     8    39    32    1
     9     1    32    1
    10     1     2    1
    11     3     2    1
    12     3     4    1
    13     4     5    1
    14     5     6   am
    15     6     7    2
    16     6     8   am
    17     8    29    1
    18    29    30    1
    19    29    31    1
    20     5     9    1
    21     9    10    1
    22    10    13    1
    23    13    14    2
    24    13    15   am
    25    15    16    1
    26    16    17    1
    27    17    18    1
    28    18    19   ar
    29    19    20   ar
    30    20    21   ar
    31    21    25    1
    32    25    26    1
    33    25    27    1
    34    25    28    1
    35    21    22   ar
    36    22    23   ar
    37    23    24    1
    38    10    11    1
    39    39    34    1
    40    11     1    1
    41    10     3    1
    42    24    15    1
    43    23    18   ar
    44    32    33    1
    45     8    12    1
@<TRIPOS>MOLECULE
*****
 41 45 0 0 0
SMALL
GASTEIGER

@<TRIPOS>ATOM
      1 C         142.6366  143.7283  163.3270 C.3     1  UNL1        0.0546
      2 C         141.8779  144.9208  162.8248 C.3     1  UNL1        0.0180
      3 C         141.6065  144.7160  161.3639 C.3     1  UNL1        0.0311
      4 C         140.9699  145.3264  160.1506 C.3     1  UNL1        0.0955
      5 N         141.1675  144.3845  159.0000 N.am    1  UNL1       -0.2637
      6 C         140.6901  144.5978  157.5940 C.2     1  UNL1        0.3039
      7 O         140.9632  143.5620  156.5440 O.2     1  UNL1       -0.2526
      8 N         139.9396  145.8468  157.2381 N.am    1  UNL1       -0.2904
      9 C         141.9261  143.1920  159.5022 C.3     1  UNL1        0.1035
     10 C         142.1975  143.3968  160.9631 C.3     1  UNL1        0.0902
     11 C         142.8341  142.7864  162.1764 C.3     1  UNL1        0.0261
     12 H         139.7604  146.5267  157.9273 H       1  UNL1        0.1509
     13 C         142.7885  142.0777  160.5624 C.2     1  UNL1        0.2267
     14 O         143.8338  142.0195  159.4882 O.2     1  UNL1       -0.2748
     15 N         142.3341  140.8167  161.2359 N.am    1  UNL1       -0.2750
     16 C         142.9251  139.4976  160.8352 C.3     1  UNL1        0.1000
     17 C         142.4708  138.2367  161.5087 C.3     1  UNL1        0.0670
     18 C         141.4254  138.2949  162.5829 C.ar    1  UNL1        0.0583
     19 N         140.9711  137.0339  163.2564 N.ar    1  UNL1       -0.2484
     20 C         139.9258  137.0921  164.3306 C.ar    1  UNL1        0.1023
     21 C         139.3348  138.4114  164.7313 C.ar    1  UNL1        0.0902
     22 C         139.7891  139.6722  164.0578 C.ar    1  UNL1        0.0040
     23 C         140.8345  139.6140  162.9836 C.ar    1  UNL1        0.0113
     24 C         141.2888  140.8749  162.3101 C.3     1  UNL1        0.1213
     25 C         138.2895  138.4696  165.8055 C.3     1  UNL1        0.4200
     26 F         137.2441  138.5278  166.8797 F       1  UNL1       -0.1658
     27 F         138.3286  136.9748  165.9246 F       1  UNL1       -0.1658
     28 F         138.2503  139.9643  165.6864 F       1  UNL1       -0.1658
     29 C         139.4623  146.0600  155.8322 C.3     1  UNL1        0.0732
     30 C         138.1872  145.4206  155.3679 C.3     1  UNL1        0.0213
     31 C         140.2599  146.9127  154.8905 C.3     1  UNL1        0.0213
     32 N         143.1140  143.5150  164.7330 N.3     1  UNL1       -0.2975
     33 H         144.1266  143.4014  164.6861 H       1  UNL1        0.1232
     34 C         143.2875  141.0393  165.5016 C.3     1  UNL1        0.1591
     35 C         142.7596  139.8890  166.3066 C.3     1  UNL1        0.1729
     36 O         141.5301  140.0639  167.1478 O.3     1  UNL1       -0.3511
     37 C         140.8285  141.3893  167.1841 C.3     1  UNL1        0.1437
     38 C         141.3564  142.5396  166.3791 C.3     1  UNL1        0.0503
     39 C         142.5860  142.3647  165.5379 C.3     1  UNL1        0.0865
     40 C         144.8521  139.5169  164.0929 C.3     1  UNL1        0.1742
     41 O         144.5170  140.8644  164.6604 O.3     1  UNL1       -0.3496
@<TRIPOS>BOND
     1    40    41    1
     2    41    34    1
     3    34    35    1
     4    35    36    1
     5    36    37    1
     6    37    38    1
     7    38    39    1
     8    39    32    1
     9     1    32    1
    10     1     2    1
    11     3     2    1
    12     3     4    1
    13     4     5    1
    14     5     6   am
    15     6     7    2
    16     6     8   am
    17     8    29    1
    18    29    30    1
    19    29    31    1
    20     5     9    1
    21     9    10    1
    22    10    13    1
    23    13    14    2
    24    13    15   am
    25    15    16    1
    26    16    17    1
    27    17    18    1
    28    18    19   ar
    29    19    20   ar
    30    20    21   ar
    31    21    25    1
    32    25    26    1
    33    25    27    1
    34    25    28    1
    35    21    22   ar
    36    22    23   ar
    37    23    24    1
    38    10    11    1
    39    39    34    1
    40    11     1    1
    41    10     3    1
    42    24    15    1
    43    23    18   ar
    44    32    33    1
    45     8    12    1
@<TRIPOS>MOLECULE
*****
 41 45 0 0 0
SMALL
GASTEIGER

@<TRIPOS>ATOM
      1 C         138.0675  142.1609  161.1667 C.3     1  UNL1        0.0546
      2 C         138.2293  141.6581  159.7628 C.3     1  UNL1        0.0180
      3 C         139.1166  142.6174  159.0262 C.3     1  UNL1        0.0311
      4 C         139.7649  142.8996  157.7034 C.3     1  UNL1        0.0955
      5 N         140.5522  144.1697  157.8346 N.am    1  UNL1       -0.2637
      6 C         141.3595  144.8224  156.7518 C.2     1  UNL1        0.3039
      7 O         142.0979  146.0977  157.0321 O.2     1  UNL1       -0.2526
      8 N         141.4284  144.1999  155.3889 N.am    1  UNL1       -0.2904
      9 C         140.3903  144.6725  159.2385 C.3     1  UNL1        0.1035
     10 C         139.5031  143.7132  159.9750 C.3     1  UNL1        0.0902
     11 C         138.8547  143.4310  161.2978 C.3     1  UNL1        0.0261
     12 H         140.9438  143.3629  155.2049 H       1  UNL1        0.1509
     13 C         139.8895  144.8088  160.9237 C.2     1  UNL1        0.2267
     14 O         139.2312  146.1530  160.8253 O.2     1  UNL1       -0.2748
     15 N         140.9344  144.5603  161.9710 N.am    1  UNL1       -0.2750
     16 C         141.3208  145.6559  162.9197 C.3     1  UNL1        0.1000
     17 C         142.3656  145.4074  163.9669 C.3     1  UNL1        0.0670
     18 C         143.0239  144.0632  164.0653 C.ar    1  UNL1        0.0583
     19 N         144.0687  143.8146  165.1125 N.ar    1  UNL1       -0.2484
     20 C         144.7271  142.4704  165.2110 C.ar    1  UNL1        0.1023
     21 C         144.3406  141.3747  164.2622 C.ar    1  UNL1        0.0902
     22 C         143.2958  141.6233  163.2150 C.ar    1  UNL1        0.0040
     23 C         142.6375  142.9675  163.1166 C.ar    1  UNL1        0.0113
     24 C         141.5927  143.2161  162.0694 C.3     1  UNL1        0.1213
     25 C         144.9989  140.0305  164.3606 C.3     1  UNL1        0.4200
     26 F         145.6572  138.6863  164.4590 F       1  UNL1       -0.1658
     27 F         146.3445  140.6798  164.2276 F       1  UNL1       -0.1658
     28 F         143.6532  139.3812  164.4936 F       1  UNL1       -0.1658
     29 C         142.2358  144.8526  154.3062 C.3     1  UNL1        0.0732
     30 C         141.5836  145.8216  153.3650 C.3     1  UNL1        0.0213
     31 C         143.6952  144.5363  154.1647 C.3     1  UNL1        0.0213
     32 N         137.2601  141.5082  162.2494 N.3     1  UNL1       -0.2975
     33 H         136.7035  142.2433  162.6855 H       1  UNL1        0.1232
     34 C         138.2841  139.3179  163.2003 C.3     1  UNL1        0.1591
     35 C         138.9742  138.5814  164.3099 C.3     1  UNL1        0.1729
     36 O         139.3305  139.2985  165.5783 O.3     1  UNL1       -0.3511
     37 C         138.9966  140.7523  165.7370 C.3     1  UNL1        0.1437
     38 C         138.3065  141.4888  164.6274 C.3     1  UNL1        0.0503
     39 C         137.9502  140.7716  163.3590 C.3     1  UNL1        0.0865
     40 C         139.0062  138.1957  160.9711 C.3     1  UNL1        0.1742
     41 O         137.9279  138.6008  161.9320 O.3     1  UNL1       -0.3496
@<TRIPOS>BOND
     1    40    41    1
     2    41    34    1
     3    34    35    1
     4    35    36    1
     5    36    37    1
     6    37    38    1
     7    38    39    1
     8    39    32    1
     9     1    32    1
    10     1     2    1
    11     3     2    1
    12     3     4    1
    13     4     5    1
    14     5     6   am
    15     6     7    2
    16     6     8   am
    17     8    29    1
    18    29    30    1
    19    29    31    1
    20     5     9    1
    21     9    10    1
    22    10    13    1
    23    13    14    2
    24    13    15   am
    25    15    16    1
    26    16    17    1
    27    17    18    1
    28    18    19   ar
    29    19    20   ar
    30    20    21   ar
    31    21    25    1
    32    25    26    1
    33    25    27    1
    34    25    28    1
    35    21    22   ar
    36    22    23   ar
    37    23    24    1
    38    10    11    1
    39    39    34    1
    40    11     1    1
    41    10     3    1
    42    24    15    1
    43    23    18   ar
    44    32    33    1
    45     8    12    1
@<TRIPOS>MOLECULE
*****
 41 45 0 0 0
SMALL
GASTEIGER

@<TRIPOS>ATOM
      1 C         139.9105  143.2783  159.2858 C.3     1  UNL1        0.0546
      2 C         140.9088  143.1391  158.1750 C.3     1  UNL1        0.0180
      3 C         140.8649  141.7213  157.6873 C.3     1  UNL1        0.0311
      4 C         141.4548  140.7590  156.6993 C.3     1  UNL1        0.0955
      5 N         140.7939  139.4271  156.8982 N.am    1  UNL1       -0.2637
      6 C         141.0810  138.1758  156.1224 C.2     1  UNL1        0.3039
      7 O         140.3365  136.9118  156.4355 O.2     1  UNL1       -0.2526
      8 N         142.1125  138.1885  155.0335 N.am    1  UNL1       -0.2904
      9 C         139.7956  139.5663  158.0091 C.3     1  UNL1        0.1035
     10 C         139.8395  140.9841  158.4968 C.3     1  UNL1        0.0902
     11 C         139.2497  141.9464  159.4847 C.3     1  UNL1        0.0261
     12 H         142.6011  139.0181  154.8279 H       1  UNL1        0.1509
     13 C         138.8141  140.2471  159.3062 C.2     1  UNL1        0.2267
     14 O         137.4078  140.1212  158.8000 O.2     1  UNL1       -0.2748
     15 N         139.1951  139.6358  160.6220 N.am    1  UNL1       -0.2750
     16 C         138.1697  138.8987  161.4315 C.3     1  UNL1        0.1000
     17 C         138.5507  138.2875  162.7472 C.3     1  UNL1        0.0670
     18 C         139.9571  138.4133  163.2535 C.ar    1  UNL1        0.0583
     19 N         140.3380  137.8021  164.5693 N.ar    1  UNL1       -0.2484
     20 C         141.7444  137.9279  165.0756 C.ar    1  UNL1        0.1023
     21 C         142.7698  138.6650  164.2660 C.ar    1  UNL1        0.0902
     22 C         142.3888  139.2762  162.9503 C.ar    1  UNL1        0.0040
     23 C         140.9824  139.1504  162.4440 C.ar    1  UNL1        0.0113
     24 C         140.6015  139.7616  161.1283 C.3     1  UNL1        0.1213
     25 C         144.1762  138.7908  164.7723 C.3     1  UNL1        0.4200
     26 F         145.5825  138.9167  165.2785 F       1  UNL1       -0.1658
     27 F         144.5987  139.3699  163.4547 F       1  UNL1       -0.1658
     28 F         143.7537  138.2117  166.0899 F       1  UNL1       -0.1658
     29 C         142.3995  136.9372  154.2577 C.3     1  UNL1        0.0732
     30 C         143.2137  135.8405  154.8777 C.3     1  UNL1        0.0213
     31 C         141.8724  136.7826  152.8619 C.3     1  UNL1        0.0213
     32 N         139.6234  144.5296  160.0617 N.3     1  UNL1       -0.2975
     33 H         140.1651  145.2765  159.6268 H       1  UNL1        0.1232
     34 C         141.3337  144.5745  162.0169 C.3     1  UNL1        0.1591
     35 C         141.6246  144.6285  163.4874 C.3     1  UNL1        0.1729
     36 O         140.4959  144.6916  164.4733 O.3     1  UNL1       -0.3511
     37 C         139.0763  144.7007  163.9887 C.3     1  UNL1        0.1437
     38 C         138.7855  144.6467  162.5181 C.3     1  UNL1        0.0503
     39 C         139.9143  144.5836  161.5322 C.3     1  UNL1        0.0865
     40 C         143.3623  143.3118  160.9968 C.3     1  UNL1        0.1742
     41 O         142.4624  144.5115  161.0309 O.3     1  UNL1       -0.3496
@<TRIPOS>BOND
     1    40    41    1
     2    41    34    1
     3    34    35    1
     4    35    36    1
     5    36    37    1
     6    37    38    1
     7    38    39    1
     8    39    32    1
     9     1    32    1
    10     1     2    1
    11     3     2    1
    12     3     4    1
    13     4     5    1
    14     5     6   am
    15     6     7    2
    16     6     8   am
    17     8    29    1
    18    29    30    1
    19    29    31    1
    20     5     9    1
    21     9    10    1
    22    10    13    1
    23    13    14    2
    24    13    15   am
    25    15    16    1
    26    16    17    1
    27    17    18    1
    28    18    19   ar
    29    19    20   ar
    30    20    21   ar
    31    21    25    1
    32    25    26    1
    33    25    27    1
    34    25    28    1
    35    21    22   ar
    36    22    23   ar
    37    23    24    1
    38    10    11    1
    39    39    34    1
    40    11     1    1
    41    10     3    1
    42    24    15    1
    43    23    18   ar
    44    32    33    1
    45     8    12    1
@<TRIPOS>MOLECULE
*****
 41 45 0 0 0
SMALL
GASTEIGER

@<TRIPOS>ATOM
      1 C         138.3638  140.1006  159.6704 C.3     1  UNL1        0.0546
      2 C         138.1279  141.2081  158.6866 C.3     1  UNL1        0.0180
      3 C         139.3574  141.3440  157.8381 C.3     1  UNL1        0.0311
      4 C         139.9715  142.1124  156.7057 C.3     1  UNL1        0.0955
      5 N         141.3467  141.5639  156.4652 N.am    1  UNL1       -0.2637
      6 C         142.3159  142.0394  155.4237 C.2     1  UNL1        0.3039
      7 O         143.6629  141.3908  155.3009 O.2     1  UNL1       -0.2526
      8 N         141.9382  143.1634  154.5052 N.am    1  UNL1       -0.2904
      9 C         141.5826  140.4565  157.4490 C.3     1  UNL1        0.1035
     10 C         140.3532  140.3205  158.2975 C.3     1  UNL1        0.0902
     11 C         139.7391  139.5521  159.4300 C.3     1  UNL1        0.0261
     12 H         141.0541  143.5891  154.5858 H       1  UNL1        0.1509
     13 C         141.3489  139.2971  158.7570 C.2     1  UNL1        0.2267
     14 O         141.3947  137.9484  158.1021 O.2     1  UNL1       -0.2748
     15 N         142.2989  139.6224  159.8713 N.am    1  UNL1       -0.2750
     16 C         143.2946  138.5990  160.3308 C.3     1  UNL1        0.1000
     17 C         144.2445  138.9242  161.4451 C.3     1  UNL1        0.0670
     18 C         144.1988  140.2729  162.1000 C.ar    1  UNL1        0.0583
     19 N         145.1488  140.5982  163.2144 N.ar    1  UNL1       -0.2484
     20 C         145.1030  141.9469  163.8693 C.ar    1  UNL1        0.1023
     21 C         144.1072  142.9704  163.4098 C.ar    1  UNL1        0.0902
     22 C         143.1573  142.6451  162.2955 C.ar    1  UNL1        0.0040
     23 C         143.2030  141.2964  161.6406 C.ar    1  UNL1        0.0113
     24 C         142.2531  140.9711  160.5262 C.3     1  UNL1        0.1213
     25 C         144.0614  144.3191  164.0647 C.3     1  UNL1        0.4200
     26 F         144.0156  145.6678  164.7196 F       1  UNL1       -0.1658
     27 F         144.0327  143.6632  165.4134 F       1  UNL1       -0.1658
     28 F         144.0901  144.9749  162.7160 F       1  UNL1       -0.1658
     29 C         142.9074  143.6389  153.4638 C.3     1  UNL1        0.0732
     30 C         143.1113  142.8419  152.2094 C.3     1  UNL1        0.0213
     31 C         143.6726  144.9113  153.6766 C.3     1  UNL1        0.0213
     32 N         137.3946  139.6251  160.7119 N.3     1  UNL1       -0.2975
     33 H         136.6458  140.3164  160.7548 H       1  UNL1        0.1232
     34 C         137.7040  140.4876  163.1430 C.3     1  UNL1        0.1591
     35 C         138.1673  140.2632  164.5519 C.3     1  UNL1        0.1729
     36 O         138.7846  138.9520  164.9386 O.3     1  UNL1       -0.3511
     37 C         138.9385  137.8650  163.9164 C.3     1  UNL1        0.1437
     38 C         138.4752  138.0894  162.5075 C.3     1  UNL1        0.0503
     39 C         137.8579  139.4007  162.1208 C.3     1  UNL1        0.0865
     40 C         137.9534  142.9193  162.2628 C.3     1  UNL1        0.1742
     41 O         137.0867  141.7988  162.7564 O.3     1  UNL1       -0.3496
@<TRIPOS>BOND
     1    40    41    1
     2    41    34    1
     3    34    35    1
     4    35    36    1
     5    36    37    1
     6    37    38    1
     7    38    39    1
     8    39    32    1
     9     1    32    1
    10     1     2    1
    11     3     2    1
    12     3     4    1
    13     4     5    1
    14     5     6   am
    15     6     7    2
    16     6     8   am
    17     8    29    1
    18    29    30    1
    19    29    31    1
    20     5     9    1
    21     9    10    1
    22    10    13    1
    23    13    14    2
    24    13    15   am
    25    15    16    1
    26    16    17    1
    27    17    18    1
    28    18    19   ar
    29    19    20   ar
    30    20    21   ar
    31    21    25    1
    32    25    26    1
    33    25    27    1
    34    25    28    1
    35    21    22   ar
    36    22    23   ar
    37    23    24    1
    38    10    11    1
    39    39    34    1
    40    11     1    1
    41    10     3    1
    42    24    15    1
    43    23    18   ar
    44    32    33    1
    45     8    12    1
