@<TRIPOS>MOLECULE
*****
 29 32 0 0 0
SMALL
GASTEIGER

@<TRIPOS>ATOM
      1 N         143.2653  141.9914  166.0779 N.3     1  UNL1       -0.2727
      2 C         143.4055  142.5369  167.4681 C.3     1  UNL1        0.0724
      3 C         142.3890  142.1912  168.5155 C.3     1  UNL1        0.0220
      4 C         141.2322  141.2999  168.1727 C.3     1  UNL1        0.0329
      5 C         141.0919  140.7544  166.7825 C.3     1  UNL1        0.0220
      6 C         142.1085  141.1001  165.7351 C.3     1  UNL1        0.0724
      7 C         141.3724  141.8455  169.5630 C.3     1  UNL1        0.0896
      8 C         140.3559  141.4998  170.6104 C.2     1  UNL1        0.2275
      9 O         140.4961  142.0453  172.0007 O.2     1  UNL1       -0.2747
     10 N         139.1991  140.6085  170.2676 N.am    1  UNL1       -0.2696
     11 C         139.0588  140.0630  168.8774 C.ar    1  UNL1        0.1300
     12 N         137.9020  139.1718  168.5346 N.ar    1  UNL1       -0.2293
     13 C         137.7618  138.6262  167.1443 C.ar    1  UNL1        0.1003
     14 C         138.7783  138.9719  166.0969 C.ar    1  UNL1        0.0204
     15 C         139.9351  139.8632  166.4397 C.ar    1  UNL1        0.0001
     16 C         140.0754  140.4087  167.8299 C.ar    1  UNL1        0.0095
     17 H         138.5319  140.3816  170.9551 H       1  UNL1        0.1562
     18 C         144.2819  142.3371  165.0304 C.3     1  UNL1        0.0722
     19 C         142.4976  143.9192  159.5248 C.2     1  UNL1        0.4049
     20 O         142.8508  143.0610  158.3463 O.2     1  UNL1       -0.2262
     21 N         142.9436  143.5237  160.9011 N.am    1  UNL1       -0.2460
     22 C         142.5904  144.3819  162.0795 C.3     1  UNL1        0.0968
     23 C         143.0365  143.9864  163.4560 C.3     1  UNL1        0.0231
     24 C         143.8358  142.7326  163.6540 C.3     1  UNL1        0.0194
     25 C         144.1890  141.8744  162.4755 C.3     1  UNL1        0.0231
     26 C         143.7429  142.2699  161.0992 C.3     1  UNL1        0.0968
     27 O         141.6983  145.1730  159.3268 O.3     1  UNL1       -0.4345
     28 C         140.2913  146.0872  157.3431 C.3     1  UNL1        0.0513
     29 C         141.6252  145.8095  157.9704 C.3     1  UNL1        0.2102
@<TRIPOS>BOND
     1    28    29    1
     2    29    27    1
     3    27    19    1
     4    19    20    2
     5    19    21   am
     6    21    22    1
     7    22    23    1
     8    23    24    1
     9    24    18    1
    10    18     1    1
    11     1     2    1
    12     2     3    1
    13     3     4    1
    14     4     5    1
    15     5     6    1
    16     4     7    1
    17     7     8    1
    18     8     9    2
    19     8    10   am
    20    10    11    1
    21    11    12   ar
    22    12    13   ar
    23    13    14   ar
    24    14    15   ar
    25    15    16   ar
    26    24    25    1
    27    25    26    1
    28    26    21    1
    29     6     1    1
    30    16    11   ar
    31    16     4    1
    32    10    17    1
@<TRIPOS>MOLECULE
*****
 29 32 0 0 0
SMALL
GASTEIGER

@<TRIPOS>ATOM
      1 N         143.1997  141.9319  165.9157 N.3     1  UNL1       -0.2727
      2 C         143.3726  142.4953  167.2950 C.3     1  UNL1        0.0724
      3 C         142.3796  142.1654  168.3697 C.3     1  UNL1        0.0220
      4 C         141.2137  141.2721  168.0651 C.3     1  UNL1        0.0329
      5 C         141.0409  140.7087  166.6858 C.3     1  UNL1        0.0220
      6 C         142.0339  141.0386  165.6111 C.3     1  UNL1        0.0724
      7 C         141.3866  141.8355  169.4446 C.3     1  UNL1        0.0896
      8 C         140.3936  141.5057  170.5193 C.2     1  UNL1        0.2275
      9 O         140.5664  142.0691  171.8987 O.2     1  UNL1       -0.2747
     10 N         139.2277  140.6124  170.2147 N.am    1  UNL1       -0.2696
     11 C         139.0548  140.0490  168.8353 C.ar    1  UNL1        0.1300
     12 N         137.8890  139.1557  168.5307 N.ar    1  UNL1       -0.2293
     13 C         137.7161  138.5922  167.1513 C.ar    1  UNL1        0.1003
     14 C         138.7091  138.9221  166.0766 C.ar    1  UNL1        0.0204
     15 C         139.8750  139.8154  166.3812 C.ar    1  UNL1        0.0001
     16 C         140.0479  140.3788  167.7605 C.ar    1  UNL1        0.0095
     17 H         138.5760  140.3959  170.9201 H       1  UNL1        0.1562
     18 C         144.1927  142.2617  164.8408 C.3     1  UNL1        0.0722
     19 C         143.2749  140.3638  159.2235 C.2     1  UNL1        0.4049
     20 O         142.5851  141.2554  158.2338 O.2     1  UNL1       -0.2262
     21 N         143.5044  140.8383  160.6278 N.am    1  UNL1       -0.2460
     22 C         144.1942  139.9468  161.6173 C.3     1  UNL1        0.0968
     23 C         144.4236  140.4212  163.0218 C.3     1  UNL1        0.0231
     24 C         143.9633  141.7873  163.4365 C.3     1  UNL1        0.0194
     25 C         143.2735  142.6788  162.4469 C.3     1  UNL1        0.0231
     26 C         143.0440  142.2043  161.0426 C.3     1  UNL1        0.0968
     27 O         143.7353  138.9978  158.8087 O.3     1  UNL1       -0.4345
     28 C         142.5417  137.1806  157.3862 C.3     1  UNL1        0.0513
     29 C         142.7473  137.8742  158.7002 C.3     1  UNL1        0.2102
@<TRIPOS>BOND
     1    28    29    1
     2    29    27    1
     3    27    19    1
     4    19    20    2
     5    19    21   am
     6    21    22    1
     7    22    23    1
     8    23    24    1
     9    24    18    1
    10    18     1    1
    11     1     2    1
    12     2     3    1
    13     3     4    1
    14     4     5    1
    15     5     6    1
    16     4     7    1
    17     7     8    1
    18     8     9    2
    19     8    10   am
    20    10    11    1
    21    11    12   ar
    22    12    13   ar
    23    13    14   ar
    24    14    15   ar
    25    15    16   ar
    26    24    25    1
    27    25    26    1
    28    26    21    1
    29     6     1    1
    30    16    11   ar
    31    16     4    1
    32    10    17    1
@<TRIPOS>MOLECULE
*****
 29 32 0 0 0
SMALL
GASTEIGER

@<TRIPOS>ATOM
      1 N         140.6910  140.3856  165.0770 N.3     1  UNL1       -0.2727
      2 C         139.4563  139.7681  165.6634 C.3     1  UNL1        0.0724
      3 C         139.1967  139.8654  167.1376 C.3     1  UNL1        0.0220
      4 C         140.1720  140.5802  168.0253 C.3     1  UNL1        0.0329
      5 C         141.4068  141.1977  167.4388 C.3     1  UNL1        0.0220
      6 C         141.6663  141.1004  165.9647 C.3     1  UNL1        0.0724
      7 C         138.9371  139.9627  168.6118 C.3     1  UNL1        0.0896
      8 C         138.6776  140.0600  170.0859 C.2     1  UNL1        0.2275
      9 O         137.4427  139.4425  170.6725 O.2     1  UNL1       -0.2747
     10 N         139.6528  140.7748  170.9736 N.am    1  UNL1       -0.2696
     11 C         140.8876  141.3923  170.3872 C.ar    1  UNL1        0.1300
     12 N         141.8629  142.1070  171.2748 N.ar    1  UNL1       -0.2293
     13 C         143.0977  142.7245  170.6883 C.ar    1  UNL1        0.1003
     14 C         143.3573  142.6272  169.2142 C.ar    1  UNL1        0.0204
     15 C         142.3820  141.9124  168.3265 C.ar    1  UNL1        0.0001
     16 C         141.1472  141.2950  168.9129 C.ar    1  UNL1        0.0095
     17 H         139.4825  140.8386  171.9412 H       1  UNL1        0.1562
     18 C         140.9506  140.2883  163.6028 C.3     1  UNL1        0.0722
     19 C         140.7873  145.2243  160.1957 C.2     1  UNL1        0.4049
     20 O         139.6099  146.1505  160.2731 O.2     1  UNL1       -0.2262
     21 N         140.8281  143.9904  161.0475 N.am    1  UNL1       -0.2460
     22 C         142.0055  143.0642  160.9700 C.3     1  UNL1        0.0968
     23 C         142.0464  141.8302  161.8218 C.3     1  UNL1        0.0231
     24 C         140.9098  141.5223  162.7510 C.3     1  UNL1        0.0194
     25 C         139.7324  142.4485  162.8284 C.3     1  UNL1        0.0231
     26 C         139.6916  143.6825  161.9767 C.3     1  UNL1        0.0968
     27 O         141.9239  145.5322  159.2665 O.3     1  UNL1       -0.4345
     28 C         140.7928  146.0726  156.9908 C.3     1  UNL1        0.0513
     29 C         141.7793  145.2789  157.7950 C.3     1  UNL1        0.2102
@<TRIPOS>BOND
     1    28    29    1
     2    29    27    1
     3    27    19    1
     4    19    20    2
     5    19    21   am
     6    21    22    1
     7    22    23    1
     8    23    24    1
     9    24    18    1
    10    18     1    1
    11     1     2    1
    12     2     3    1
    13     3     4    1
    14     4     5    1
    15     5     6    1
    16     4     7    1
    17     7     8    1
    18     8     9    2
    19     8    10   am
    20    10    11    1
    21    11    12   ar
    22    12    13   ar
    23    13    14   ar
    24    14    15   ar
    25    15    16   ar
    26    24    25    1
    27    25    26    1
    28    26    21    1
    29     6     1    1
    30    16    11   ar
    31    16     4    1
    32    10    17    1
@<TRIPOS>MOLECULE
*****
 29 32 0 0 0
SMALL
GASTEIGER

@<TRIPOS>ATOM
      1 N         140.8647  139.4460  165.1731 N.3     1  UNL1       -0.2727
      2 C         139.5884  138.9997  165.8227 C.3     1  UNL1        0.0724
      3 C         139.2786  139.4144  167.2305 C.3     1  UNL1        0.0220
      4 C         140.2451  140.2753  167.9887 C.3     1  UNL1        0.0329
      5 C         141.5213  140.7216  167.3391 C.3     1  UNL1        0.0220
      6 C         141.8311  140.3069  165.9313 C.3     1  UNL1        0.0724
      7 C         138.9688  139.8291  168.6384 C.3     1  UNL1        0.0896
      8 C         138.6590  140.2437  170.0463 C.2     1  UNL1        0.2275
      9 O         137.3827  139.7975  170.6960 O.2     1  UNL1       -0.2747
     10 N         139.6254  141.1047  170.8045 N.am    1  UNL1       -0.2696
     11 C         140.9016  141.5509  170.1548 C.ar    1  UNL1        0.1300
     12 N         141.8680  142.4119  170.9130 N.ar    1  UNL1       -0.2293
     13 C         143.1443  142.8581  170.2633 C.ar    1  UNL1        0.1003
     14 C         143.4541  142.4435  168.8555 C.ar    1  UNL1        0.0204
     15 C         142.4877  141.5825  168.0973 C.ar    1  UNL1        0.0001
     16 C         141.2115  141.1363  168.7469 C.ar    1  UNL1        0.0095
     17 H         139.4221  141.3768  171.7285 H       1  UNL1        0.1562
     18 C         141.1745  139.0313  163.7652 C.3     1  UNL1        0.0722
     19 C         143.2953  143.0538  159.8509 C.2     1  UNL1        0.4049
     20 O         142.5313  144.3172  159.5856 O.2     1  UNL1       -0.2262
     21 N         142.7651  142.0482  160.8294 N.am    1  UNL1       -0.2460
     22 C         143.5290  140.7849  161.0947 C.3     1  UNL1        0.0968
     23 C         142.9988  139.7792  162.0733 C.3     1  UNL1        0.0231
     24 C         141.7047  140.0369  162.7866 C.3     1  UNL1        0.0194
     25 C         140.9408  141.3003  162.5213 C.3     1  UNL1        0.0231
     26 C         141.4709  142.3059  161.5427 C.3     1  UNL1        0.0968
     27 O         144.5894  142.7961  159.1375 O.3     1  UNL1       -0.4345
     28 C         145.8564  142.0252  157.0043 C.3     1  UNL1        0.0513
     29 C         144.5852  142.4496  157.6780 C.3     1  UNL1        0.2102
@<TRIPOS>BOND
     1    28    29    1
     2    29    27    1
     3    27    19    1
     4    19    20    2
     5    19    21   am
     6    21    22    1
     7    22    23    1
     8    23    24    1
     9    24    18    1
    10    18     1    1
    11     1     2    1
    12     2     3    1
    13     3     4    1
    14     4     5    1
    15     5     6    1
    16     4     7    1
    17     7     8    1
    18     8     9    2
    19     8    10   am
    20    10    11    1
    21    11    12   ar
    22    12    13   ar
    23    13    14   ar
    24    14    15   ar
    25    15    16   ar
    26    24    25    1
    27    25    26    1
    28    26    21    1
    29     6     1    1
    30    16    11   ar
    31    16     4    1
    32    10    17    1
@<TRIPOS>MOLECULE
*****
 29 32 0 0 0
SMALL
GASTEIGER

@<TRIPOS>ATOM
      1 N         141.2678  139.7633  165.1761 N.3     1  UNL1       -0.2727
      2 C         139.9709  139.2719  165.7474 C.3     1  UNL1        0.0724
      3 C         139.5984  139.6091  167.1608 C.3     1  UNL1        0.0220
      4 C         140.5229  140.4376  168.0027 C.3     1  UNL1        0.0329
      5 C         141.8198  140.9290  167.4314 C.3     1  UNL1        0.0220
      6 C         142.1923  140.5918  166.0181 C.3     1  UNL1        0.0724
      7 C         139.2258  139.9463  168.5741 C.3     1  UNL1        0.0896
      8 C         138.8533  140.2835  169.9875 C.2     1  UNL1        0.2275
      9 O         137.5563  139.7922  170.5589 O.2     1  UNL1       -0.2747
     10 N         139.7778  141.1120  170.8294 N.am    1  UNL1       -0.2696
     11 C         141.0748  141.6033  170.2581 C.ar    1  UNL1        0.1300
     12 N         141.9992  142.4319  171.1001 N.ar    1  UNL1       -0.2293
     13 C         143.2963  142.9232  170.5287 C.ar    1  UNL1        0.1003
     14 C         143.6687  142.5860  169.1154 C.ar    1  UNL1        0.0204
     15 C         142.7443  141.7575  168.2734 C.ar    1  UNL1        0.0001
     16 C         141.4473  141.2662  168.8447 C.ar    1  UNL1        0.0095
     17 H         139.5333  141.3333  171.7571 H       1  UNL1        0.1562
     18 C         141.6404  139.4261  163.7627 C.3     1  UNL1        0.0722
     19 C         138.5115  141.7480  159.2001 C.2     1  UNL1        0.4049
     20 O         138.5696  143.2212  158.9236 O.2     1  UNL1       -0.2262
     21 N         139.2937  141.1675  160.3407 N.am    1  UNL1       -0.2460
     22 C         139.2356  139.6944  160.6171 C.3     1  UNL1        0.0968
     23 C         140.0178  139.1139  161.7578 C.3     1  UNL1        0.0231
     24 C         140.8582  140.0065  162.6221 C.3     1  UNL1        0.0194
     25 C         140.9163  141.4797  162.3456 C.3     1  UNL1        0.0231
     26 C         140.1341  142.0602  161.2050 C.3     1  UNL1        0.0968
     27 O         137.6711  140.8553  158.3358 O.3     1  UNL1       -0.4345
     28 C         135.9424  140.8923  156.3966 C.3     1  UNL1        0.0513
     29 C         137.2698  141.3033  156.9616 C.3     1  UNL1        0.2102
@<TRIPOS>BOND
     1    28    29    1
     2    29    27    1
     3    27    19    1
     4    19    20    2
     5    19    21   am
     6    21    22    1
     7    22    23    1
     8    23    24    1
     9    24    18    1
    10    18     1    1
    11     1     2    1
    12     2     3    1
    13     3     4    1
    14     4     5    1
    15     5     6    1
    16     4     7    1
    17     7     8    1
    18     8     9    2
    19     8    10   am
    20    10    11    1
    21    11    12   ar
    22    12    13   ar
    23    13    14   ar
    24    14    15   ar
    25    15    16   ar
    26    24    25    1
    27    25    26    1
    28    26    21    1
    29     6     1    1
    30    16    11   ar
    31    16     4    1
    32    10    17    1
@<TRIPOS>MOLECULE
*****
 29 32 0 0 0
SMALL
GASTEIGER

@<TRIPOS>ATOM
      1 N         142.5623  141.1774  165.0124 N.3     1  UNL1       -0.2727
      2 C         143.1358  139.8896  165.5250 C.3     1  UNL1        0.0724
      3 C         142.9667  139.5150  166.9676 C.3     1  UNL1        0.0220
      4 C         142.2242  140.4282  167.8975 C.3     1  UNL1        0.0329
      5 C         141.6507  141.7159  167.3849 C.3     1  UNL1        0.0220
      6 C         141.8198  142.0905  165.9423 C.3     1  UNL1        0.0724
      7 C         142.7976  139.1404  168.4102 C.3     1  UNL1        0.0896
      8 C         142.6285  138.7658  169.8528 C.2     1  UNL1        0.2275
      9 O         143.2020  137.4780  170.3655 O.2     1  UNL1       -0.2747
     10 N         141.8860  139.6789  170.7827 N.am    1  UNL1       -0.2696
     11 C         141.3125  140.9667  170.2701 C.ar    1  UNL1        0.1300
     12 N         140.5700  141.8798  171.2000 N.ar    1  UNL1       -0.2293
     13 C         139.9965  143.1676  170.6874 C.ar    1  UNL1        0.1003
     14 C         140.1656  143.5422  169.2448 C.ar    1  UNL1        0.0204
     15 C         140.9082  142.6291  168.3148 C.ar    1  UNL1        0.0001
     16 C         141.4816  141.3413  168.8275 C.ar    1  UNL1        0.0095
     17 H         141.7750  139.4330  171.7295 H       1  UNL1        0.1562
     18 C         142.7314  141.5520  163.5698 C.3     1  UNL1        0.0722
     19 C         138.9800  139.3481  159.4383 C.2     1  UNL1        0.4049
     20 O         137.6620  140.0190  159.1880 O.2     1  UNL1       -0.2262
     21 N         139.9179  139.8991  160.4712 N.am    1  UNL1       -0.2460
     22 C         141.2359  139.2281  160.7214 C.3     1  UNL1        0.0968
     23 C         142.1738  139.7791  161.7543 C.3     1  UNL1        0.0231
     24 C         141.7936  141.0010  162.5369 C.3     1  UNL1        0.0194
     25 C         140.4755  141.6720  162.2866 C.3     1  UNL1        0.0231
     26 C         139.5377  141.1210  161.2537 C.3     1  UNL1        0.0968
     27 O         139.3602  138.1262  158.6557 O.3     1  UNL1       -0.4345
     28 C         141.3021  137.5576  157.0260 C.3     1  UNL1        0.0513
     29 C         140.0128  138.2687  157.3126 C.3     1  UNL1        0.2102
@<TRIPOS>BOND
     1    28    29    1
     2    29    27    1
     3    27    19    1
     4    19    20    2
     5    19    21   am
     6    21    22    1
     7    22    23    1
     8    23    24    1
     9    24    18    1
    10    18     1    1
    11     1     2    1
    12     2     3    1
    13     3     4    1
    14     4     5    1
    15     5     6    1
    16     4     7    1
    17     7     8    1
    18     8     9    2
    19     8    10   am
    20    10    11    1
    21    11    12   ar
    22    12    13   ar
    23    13    14   ar
    24    14    15   ar
    25    15    16   ar
    26    24    25    1
    27    25    26    1
    28    26    21    1
    29     6     1    1
    30    16    11   ar
    31    16     4    1
    32    10    17    1
@<TRIPOS>MOLECULE
*****
 29 32 0 0 0
SMALL
GASTEIGER

@<TRIPOS>ATOM
      1 N         139.6291  141.0332  162.8220 N.3     1  UNL1       -0.2727
      2 C         138.5880  139.9902  163.1016 C.3     1  UNL1        0.0724
      3 C         138.3145  139.5632  164.5133 C.3     1  UNL1        0.0220
      4 C         139.0822  140.1791  165.6452 C.3     1  UNL1        0.0329
      5 C         140.1233  141.2220  165.3656 C.3     1  UNL1        0.0220
      6 C         140.3967  141.6491  163.9539 C.3     1  UNL1        0.0724
      7 C         138.0410  139.1360  165.9250 C.3     1  UNL1        0.0896
      8 C         137.7676  138.7090  167.3366 C.2     1  UNL1        0.2275
      9 O         136.7264  137.6660  167.6164 O.2     1  UNL1       -0.2747
     10 N         138.5352  139.3249  168.4686 N.am    1  UNL1       -0.2696
     11 C         139.5763  140.3678  168.1889 C.ar    1  UNL1        0.1300
     12 N         140.3440  140.9837  169.3209 N.ar    1  UNL1       -0.2293
     13 C         141.3852  142.0267  169.0412 C.ar    1  UNL1        0.1003
     14 C         141.6586  142.4538  167.6295 C.ar    1  UNL1        0.0204
     15 C         140.8910  141.8379  166.4975 C.ar    1  UNL1        0.0001
     16 C         139.8498  140.7949  166.7772 C.ar    1  UNL1        0.0095
     17 H         138.3557  139.0446  169.3951 H       1  UNL1        0.1562
     18 C         139.9026  141.4603  161.4102 C.3     1  UNL1        0.0722
     19 C         141.5695  137.4019  157.3175 C.2     1  UNL1        0.4049
     20 O         140.6422  137.0456  156.1936 O.2     1  UNL1       -0.2262
     21 N         141.1528  138.4165  158.3407 N.am    1  UNL1       -0.2460
     22 C         142.0801  138.7728  159.4646 C.3     1  UNL1        0.0968
     23 C         141.6634  139.7874  160.4878 C.3     1  UNL1        0.0231
     24 C         140.3193  140.4457  160.3871 C.3     1  UNL1        0.0194
     25 C         139.3920  140.0894  159.2631 C.3     1  UNL1        0.0231
     26 C         139.8088  139.0749  158.2400 C.3     1  UNL1        0.0968
     27 O         142.9136  136.7436  157.4183 O.3     1  UNL1       -0.4345
     28 C         143.6590  135.2636  155.4173 C.3     1  UNL1        0.0513
     29 C         143.1313  135.3871  156.8159 C.3     1  UNL1        0.2102
@<TRIPOS>BOND
     1    28    29    1
     2    29    27    1
     3    27    19    1
     4    19    20    2
     5    19    21   am
     6    21    22    1
     7    22    23    1
     8    23    24    1
     9    24    18    1
    10    18     1    1
    11     1     2    1
    12     2     3    1
    13     3     4    1
    14     4     5    1
    15     5     6    1
    16     4     7    1
    17     7     8    1
    18     8     9    2
    19     8    10   am
    20    10    11    1
    21    11    12   ar
    22    12    13   ar
    23    13    14   ar
    24    14    15   ar
    25    15    16   ar
    26    24    25    1
    27    25    26    1
    28    26    21    1
    29     6     1    1
    30    16    11   ar
    31    16     4    1
    32    10    17    1
@<TRIPOS>MOLECULE
*****
 29 32 0 0 0
SMALL
GASTEIGER

@<TRIPOS>ATOM
      1 N         142.9353  140.3714  164.8144 N.3     1  UNL1       -0.2727
      2 C         141.6929  139.6336  164.4121 C.3     1  UNL1        0.0724
      3 C         140.5843  139.4354  165.4030 C.3     1  UNL1        0.0220
      4 C         140.7183  139.9751  166.7961 C.3     1  UNL1        0.0329
      5 C         141.9607  140.7129  167.1984 C.3     1  UNL1        0.0220
      6 C         143.0693  140.9111  166.2075 C.3     1  UNL1        0.0724
      7 C         139.4757  139.2372  166.3939 C.3     1  UNL1        0.0896
      8 C         138.3672  139.0391  167.3847 C.2     1  UNL1        0.2275
      9 O         137.1247  138.3012  166.9825 O.2     1  UNL1       -0.2747
     10 N         138.5011  139.5788  168.7779 N.am    1  UNL1       -0.2696
     11 C         139.7436  140.3166  169.1801 C.ar    1  UNL1        0.1300
     12 N         139.8775  140.8563  170.5733 N.ar    1  UNL1       -0.2293
     13 C         141.1200  141.5942  170.9755 C.ar    1  UNL1        0.1003
     14 C         142.2286  141.7923  169.9846 C.ar    1  UNL1        0.0204
     15 C         142.0947  141.2526  168.5915 C.ar    1  UNL1        0.0001
     16 C         140.8522  140.5148  168.1893 C.ar    1  UNL1        0.0095
     17 H         137.7735  139.4487  169.4282 H       1  UNL1        0.1562
     18 C         144.0439  140.5696  163.8235 C.3     1  UNL1        0.0722
     19 C         142.9930  143.4938  158.6909 C.2     1  UNL1        0.4049
     20 O         143.1854  142.7960  157.3771 O.2     1  UNL1       -0.2262
     21 N         143.2557  142.7628  159.9740 N.am    1  UNL1       -0.2460
     22 C         143.0633  143.4607  161.2877 C.3     1  UNL1        0.0968
     23 C         143.3260  142.7296  162.5710 C.3     1  UNL1        0.0231
     24 C         143.7812  141.3007  162.5404 C.3     1  UNL1        0.0194
     25 C         143.9736  140.6028  161.2266 C.3     1  UNL1        0.0231
     26 C         143.7109  141.3338  159.9435 C.3     1  UNL1        0.0968
     27 O         142.5378  144.9228  158.7215 O.3     1  UNL1       -0.4345
     28 C         140.2667  145.4124  159.8846 C.3     1  UNL1        0.0513
     29 C         141.0757  145.2462  158.6324 C.3     1  UNL1        0.2102
@<TRIPOS>BOND
     1    28    29    1
     2    29    27    1
     3    27    19    1
     4    19    20    2
     5    19    21   am
     6    21    22    1
     7    22    23    1
     8    23    24    1
     9    24    18    1
    10    18     1    1
    11     1     2    1
    12     2     3    1
    13     3     4    1
    14     4     5    1
    15     5     6    1
    16     4     7    1
    17     7     8    1
    18     8     9    2
    19     8    10   am
    20    10    11    1
    21    11    12   ar
    22    12    13   ar
    23    13    14   ar
    24    14    15   ar
    25    15    16   ar
    26    24    25    1
    27    25    26    1
    28    26    21    1
    29     6     1    1
    30    16    11   ar
    31    16     4    1
    32    10    17    1
@<TRIPOS>MOLECULE
*****
 29 32 0 0 0
SMALL
GASTEIGER

@<TRIPOS>ATOM
      1 N         140.8998  139.3885  163.5533 N.3     1  UNL1       -0.2727
      2 C         140.0182  138.6977  162.5556 C.3     1  UNL1        0.0724
      3 C         139.4307  139.4706  161.4122 C.3     1  UNL1        0.0220
      4 C         139.7248  140.9342  161.2665 C.3     1  UNL1        0.0329
      5 C         140.6064  141.6250  162.2642 C.3     1  UNL1        0.0220
      6 C         141.1939  140.8521  163.4076 C.3     1  UNL1        0.0724
      7 C         138.8431  140.2435  160.2687 C.3     1  UNL1        0.0896
      8 C         138.2556  141.0163  159.1253 C.2     1  UNL1        0.2275
      9 O         137.3739  140.3255  158.1275 O.2     1  UNL1       -0.2747
     10 N         138.5497  142.4800  158.9796 N.am    1  UNL1       -0.2696
     11 C         139.4313  143.1708  159.9773 C.ar    1  UNL1        0.1300
     12 N         139.7254  144.6344  159.8316 N.ar    1  UNL1       -0.2293
     13 C         140.6071  145.3252  160.8294 C.ar    1  UNL1        0.1003
     14 C         141.1946  144.5523  161.9728 C.ar    1  UNL1        0.0204
     15 C         140.9005  143.0887  162.1185 C.ar    1  UNL1        0.0001
     16 C         140.0189  142.3979  161.1208 C.ar    1  UNL1        0.0095
     17 H         138.1640  142.9872  158.2291 H       1  UNL1        0.1562
     18 C         141.4874  138.6156  164.6968 C.3     1  UNL1        0.0722
     19 C         141.2260  140.8335  170.2657 C.2     1  UNL1        0.4049
     20 O         142.4481  140.8226  171.1355 O.2     1  UNL1       -0.2262
     21 N         141.2914  140.2790  168.8735 N.am    1  UNL1       -0.2460
     22 C         140.0693  140.2899  168.0038 C.3     1  UNL1        0.0968
     23 C         140.1346  139.7354  166.6115 C.3     1  UNL1        0.0231
     24 C         141.4220  139.1701  166.0890 C.3     1  UNL1        0.0194
     25 C         142.6441  139.1592  166.9588 C.3     1  UNL1        0.0231
     26 C         142.5788  139.7137  168.3510 C.3     1  UNL1        0.0968
     27 O         139.9386  141.3988  170.7881 O.3     1  UNL1       -0.4345
     28 C         140.5382  143.7188  169.7838 C.3     1  UNL1        0.0513
     29 C         139.6379  142.8588  170.6205 C.3     1  UNL1        0.2102
@<TRIPOS>BOND
     1    28    29    1
     2    29    27    1
     3    27    19    1
     4    19    20    2
     5    19    21   am
     6    21    22    1
     7    22    23    1
     8    23    24    1
     9    24    18    1
    10    18     1    1
    11     1     2    1
    12     2     3    1
    13     3     4    1
    14     4     5    1
    15     5     6    1
    16     4     7    1
    17     7     8    1
    18     8     9    2
    19     8    10   am
    20    10    11    1
    21    11    12   ar
    22    12    13   ar
    23    13    14   ar
    24    14    15   ar
    25    15    16   ar
    26    24    25    1
    27    25    26    1
    28    26    21    1
    29     6     1    1
    30    16    11   ar
    31    16     4    1
    32    10    17    1
