@<TRIPOS>MOLECULE
*****
 30 33 0 0 0
SMALL
GASTEIGER

@<TRIPOS>ATOM
      1 C         139.9307  139.5911  166.4237 C.ar    1  UNL1        0.1213
      2 N         139.1414  140.0139  167.6271 N.ar    1  UNL1       -0.2309
      3 C         140.1024  140.2354  168.7574 C.ar    1  UNL1        0.0983
      4 C         139.8966  140.6606  170.1811 C.ar    1  UNL1        0.0206
      5 C         141.0741  140.7998  171.0998 C.ar    1  UNL1        0.0016
      6 C         142.4573  140.5139  170.5949 C.ar    1  UNL1        0.0016
      7 C         142.6631  140.0887  169.1713 C.ar    1  UNL1        0.0188
      8 C         141.4856  139.9495  168.2525 C.ar    1  UNL1        0.0787
      9 N         141.3795  139.5513  166.8102 N.ar    1  UNL1       -0.3110
     10 N         138.1721  140.0166  162.8915 N.3     1  UNL1       -0.2646
     11 C         138.2476  138.6136  162.3664 C.3     1  UNL1        0.0725
     12 C         138.8842  137.5364  163.1937 C.3     1  UNL1        0.0178
     13 C         139.4452  137.8622  164.5461 C.3     1  UNL1        0.0103
     14 C         139.3697  139.2652  165.0713 C.3     1  UNL1        0.0729
     15 C         138.7331  140.3424  164.2440 C.3     1  UNL1        0.0800
     16 C         137.5355  141.0938  162.0642 C.3     1  UNL1        0.1587
     17 C         139.8743  144.0567  160.8388 C.3     1  UNL1        0.1149
     18 N         139.2312  142.7048  160.9331 N.am    1  UNL1       -0.2749
     19 C         139.6407  141.6120  159.9906 C.3     1  UNL1        0.1149
     20 C         138.1786  142.4457  161.9699 C.2     1  UNL1        0.2421
     21 O         137.7691  143.5385  162.9124 O.2     1  UNL1       -0.2734
     22 C         142.5217  139.1787  165.9121 C.3     1  UNL1        0.1544
     23 C         143.2415  140.2402  165.1345 C.3     1  UNL1        0.2298
     24 O         143.5072  141.5777  165.7594 O.3     1  UNL1       -0.4734
     25 C         143.0010  142.8269  165.1013 C.ar    1  UNL1        0.1386
     26 C         143.9705  143.8413  164.5714 C.ar    1  UNL1        0.0369
     27 C         143.4643  145.0905  163.9133 C.ar    1  UNL1        0.0031
     28 C         141.9883  145.3254  163.7851 C.ar    1  UNL1        0.0002
     29 C         141.0187  144.3111  164.3151 C.ar    1  UNL1        0.0031
     30 C         141.5250  143.0618  164.9732 C.ar    1  UNL1        0.0369
@<TRIPOS>BOND
     1    17    18    1
     2    18    19    1
     3    18    20   am
     4    20    21    2
     5    20    16    1
     6    16    10    1
     7    10    11    1
     8    11    12    1
     9    12    13    1
    10    13    14    1
    11    14     1    1
    12     1     2   ar
    13     2     3   ar
    14     3     4   ar
    15     4     5   ar
    16     5     6   ar
    17     6     7   ar
    18     7     8   ar
    19     8     9   ar
    20     9    22    1
    21    22    23    1
    22    23    24    1
    23    24    25    1
    24    25    26   ar
    25    26    27   ar
    26    27    28   ar
    27    28    29   ar
    28    29    30   ar
    29    14    15    1
    30    15    10    1
    31     9     1   ar
    32    30    25   ar
    33     8     3   ar
@<TRIPOS>MOLECULE
*****
 30 33 0 0 0
SMALL
GASTEIGER

@<TRIPOS>ATOM
      1 C         141.6969  139.3540  166.4735 C.ar    1  UNL1        0.1213
      2 N         142.7042  139.2417  167.5793 N.ar    1  UNL1       -0.2309
      3 C         142.1551  139.9525  168.7806 C.ar    1  UNL1        0.0983
      4 C         142.7073  140.1686  170.1583 C.ar    1  UNL1        0.0206
      5 C         141.9128  140.9364  171.1728 C.ar    1  UNL1        0.0016
      6 C         140.5660  141.4880  170.8096 C.ar    1  UNL1        0.0016
      7 C         140.0138  141.2718  169.4318 C.ar    1  UNL1        0.0188
      8 C         140.8083  140.5040  168.4173 C.ar    1  UNL1        0.0787
      9 N         140.5252  140.1342  166.9915 N.ar    1  UNL1       -0.3110
     10 N         143.0442  138.7337  162.7925 N.3     1  UNL1       -0.2646
     11 C         142.1165  137.6496  162.3300 C.3     1  UNL1        0.0725
     12 C         141.0489  137.1336  163.2486 C.3     1  UNL1        0.0178
     13 C         140.9091  137.7018  164.6298 C.3     1  UNL1        0.0103
     14 C         141.8368  138.7859  165.0923 C.3     1  UNL1        0.0729
     15 C         142.9044  139.3018  164.1737 C.3     1  UNL1        0.0800
     16 C         144.1119  139.2498  161.8738 C.3     1  UNL1        0.1587
     17 C         143.6745  143.0092  160.6798 C.3     1  UNL1        0.1149
     18 N         143.4554  141.5319  160.8199 N.am    1  UNL1       -0.2749
     19 C         142.3604  140.8594  160.0459 C.3     1  UNL1        0.1149
     20 C         144.3311  140.7270  161.7338 C.2     1  UNL1        0.2421
     21 O         145.4261  141.3995  162.5077 O.2     1  UNL1       -0.2734
     22 C         139.2875  140.4832  166.2192 C.3     1  UNL1        0.1544
     23 C         139.3296  141.5698  165.1861 C.3     1  UNL1        0.2298
     24 O         139.7813  142.9488  165.5658 O.3     1  UNL1       -0.4734
     25 C         141.0916  143.4749  165.0595 C.ar    1  UNL1        0.1386
     26 C         141.1214  144.6790  164.1656 C.ar    1  UNL1        0.0369
     27 C         142.4317  145.2050  163.6593 C.ar    1  UNL1        0.0031
     28 C         143.7123  144.5269  164.0468 C.ar    1  UNL1        0.0002
     29 C         143.6825  143.3228  164.9407 C.ar    1  UNL1        0.0031
     30 C         142.3722  142.7967  165.4471 C.ar    1  UNL1        0.0369
@<TRIPOS>BOND
     1    17    18    1
     2    18    19    1
     3    18    20   am
     4    20    21    2
     5    20    16    1
     6    16    10    1
     7    10    11    1
     8    11    12    1
     9    12    13    1
    10    13    14    1
    11    14     1    1
    12     1     2   ar
    13     2     3   ar
    14     3     4   ar
    15     4     5   ar
    16     5     6   ar
    17     6     7   ar
    18     7     8   ar
    19     8     9   ar
    20     9    22    1
    21    22    23    1
    22    23    24    1
    23    24    25    1
    24    25    26   ar
    25    26    27   ar
    26    27    28   ar
    27    28    29   ar
    28    29    30   ar
    29    14    15    1
    30    15    10    1
    31     9     1   ar
    32    30    25   ar
    33     8     3   ar
@<TRIPOS>MOLECULE
*****
 30 33 0 0 0
SMALL
GASTEIGER

@<TRIPOS>ATOM
      1 C         141.6433  142.0047  163.6331 C.ar    1  UNL1        0.1213
      2 N         142.3464  142.2919  162.3396 N.ar    1  UNL1       -0.2309
      3 C         141.6678  143.4631  161.6931 C.ar    1  UNL1        0.0983
      4 C         141.9270  144.1883  160.4060 C.ar    1  UNL1        0.0206
      5 C         141.0636  145.3501  160.0128 C.ar    1  UNL1        0.0016
      6 C         139.9411  145.7868  160.9068 C.ar    1  UNL1        0.0016
      7 C         139.6819  145.0616  162.1939 C.ar    1  UNL1        0.0188
      8 C         140.5452  143.8997  162.5871 C.ar    1  UNL1        0.0787
      9 N         140.5301  142.9984  163.7860 N.ar    1  UNL1       -0.3110
     10 N         142.5246  140.1464  167.0271 N.3     1  UNL1       -0.2646
     11 C         142.6898  138.7361  166.5436 C.3     1  UNL1        0.0725
     12 C         142.5061  138.4154  165.0899 C.3     1  UNL1        0.0178
     13 C         142.1573  139.5050  164.1197 C.3     1  UNL1        0.0103
     14 C         141.9921  140.9152  164.6033 C.3     1  UNL1        0.0729
     15 C         142.1758  141.2359  166.0570 C.3     1  UNL1        0.0800
     16 C         142.7083  140.4672  168.4809 C.3     1  UNL1        0.1587
     17 C         140.7235  143.6279  169.8301 C.3     1  UNL1        0.1149
     18 N         141.0126  142.2455  169.3248 N.am    1  UNL1       -0.2749
     19 C         139.8950  141.2589  169.1580 C.3     1  UNL1        0.1149
     20 C         142.4192  141.8496  168.9863 C.2     1  UNL1        0.2421
     21 O         143.5368  142.8361  169.1530 O.2     1  UNL1       -0.2734
     22 C         139.5703  143.0770  164.9361 C.3     1  UNL1        0.1544
     23 C         138.1189  142.7634  164.7244 C.3     1  UNL1        0.2298
     24 O         137.7201  141.6119  163.8499 O.3     1  UNL1       -0.4734
     25 C         138.1459  140.2180  164.2047 C.ar    1  UNL1        0.1386
     26 C         138.4911  139.2404  163.1207 C.ar    1  UNL1        0.0369
     27 C         138.9169  137.8466  163.4755 C.ar    1  UNL1        0.0031
     28 C         138.9975  137.4303  164.9143 C.ar    1  UNL1        0.0002
     29 C         138.6524  138.4079  165.9983 C.ar    1  UNL1        0.0031
     30 C         138.2265  139.8018  165.6435 C.ar    1  UNL1        0.0369
@<TRIPOS>BOND
     1    17    18    1
     2    18    19    1
     3    18    20   am
     4    20    21    2
     5    20    16    1
     6    16    10    1
     7    10    11    1
     8    11    12    1
     9    12    13    1
    10    13    14    1
    11    14     1    1
    12     1     2   ar
    13     2     3   ar
    14     3     4   ar
    15     4     5   ar
    16     5     6   ar
    17     6     7   ar
    18     7     8   ar
    19     8     9   ar
    20     9    22    1
    21    22    23    1
    22    23    24    1
    23    24    25    1
    24    25    26   ar
    25    26    27   ar
    26    27    28   ar
    27    28    29   ar
    28    29    30   ar
    29    14    15    1
    30    15    10    1
    31     9     1   ar
    32    30    25   ar
    33     8     3   ar
@<TRIPOS>MOLECULE
*****
 30 33 0 0 0
SMALL
GASTEIGER

@<TRIPOS>ATOM
      1 C         142.0663  140.6723  166.0253 C.ar    1  UNL1        0.1213
      2 N         142.4197  141.5268  167.2064 N.ar    1  UNL1       -0.2309
      3 C         141.3819  141.3045  168.2665 C.ar    1  UNL1        0.0983
      4 C         141.2142  141.8771  169.6426 C.ar    1  UNL1        0.0206
      5 C         140.0519  141.4578  170.4929 C.ar    1  UNL1        0.0016
      6 C         139.0572  140.4658  169.9670 C.ar    1  UNL1        0.0016
      7 C         139.2249  139.8932  168.5908 C.ar    1  UNL1        0.0188
      8 C         140.3872  140.3125  167.7405 C.ar    1  UNL1        0.0787
      9 N         140.8102  139.9219  166.3554 N.ar    1  UNL1       -0.3110
     10 N         143.1222  141.2358  162.2415 N.3     1  UNL1       -0.2646
     11 C         144.3702  140.4069  162.1689 C.3     1  UNL1        0.0725
     12 C         144.8502  139.6664  163.3818 C.3     1  UNL1        0.0178
     13 C         144.0822  139.7549  164.6673 C.3     1  UNL1        0.0103
     14 C         142.8343  140.5838  164.7398 C.3     1  UNL1        0.0729
     15 C         142.3543  141.3243  163.5269 C.3     1  UNL1        0.0800
     16 C         142.6421  141.9764  161.0285 C.3     1  UNL1        0.1587
     17 C         140.7249  145.4350  160.6930 C.3     1  UNL1        0.1149
     18 N         141.0295  143.9689  160.6049 N.am    1  UNL1       -0.2749
     19 C         140.0260  143.0291  160.0048 C.3     1  UNL1        0.1149
     20 C         142.3375  143.4425  161.1167 C.2     1  UNL1        0.2421
     21 O         143.3410  144.3822  161.7168 O.2     1  UNL1       -0.2734
     22 C         140.1015  138.9511  165.4580 C.3     1  UNL1        0.1544
     23 C         139.0144  139.4316  164.5431 C.3     1  UNL1        0.2298
     24 O         138.0743  140.5090  164.9962 O.3     1  UNL1       -0.4734
     25 C         138.2846  141.9251  164.5484 C.ar    1  UNL1        0.1386
     26 C         137.5770  142.4393  163.3299 C.ar    1  UNL1        0.0369
     27 C         137.7873  143.8554  162.8820 C.ar    1  UNL1        0.0031
     28 C         138.7053  144.7572  163.6527 C.ar    1  UNL1        0.0002
     29 C         139.4129  144.2430  164.8711 C.ar    1  UNL1        0.0031
     30 C         139.2027  142.8270  165.3190 C.ar    1  UNL1        0.0369
@<TRIPOS>BOND
     1    17    18    1
     2    18    19    1
     3    18    20   am
     4    20    21    2
     5    20    16    1
     6    16    10    1
     7    10    11    1
     8    11    12    1
     9    12    13    1
    10    13    14    1
    11    14     1    1
    12     1     2   ar
    13     2     3   ar
    14     3     4   ar
    15     4     5   ar
    16     5     6   ar
    17     6     7   ar
    18     7     8   ar
    19     8     9   ar
    20     9    22    1
    21    22    23    1
    22    23    24    1
    23    24    25    1
    24    25    26   ar
    25    26    27   ar
    26    27    28   ar
    27    28    29   ar
    28    29    30   ar
    29    14    15    1
    30    15    10    1
    31     9     1   ar
    32    30    25   ar
    33     8     3   ar
@<TRIPOS>MOLECULE
*****
 30 33 0 0 0
SMALL
GASTEIGER

@<TRIPOS>ATOM
      1 C         140.4502  140.7886  166.4534 C.ar    1  UNL1        0.1213
      2 N         139.8345  140.8392  167.8203 N.ar    1  UNL1       -0.2309
      3 C         140.8474  141.4168  168.7639 C.ar    1  UNL1        0.0983
      4 C         140.7994  141.7033  170.2355 C.ar    1  UNL1        0.0206
      5 C         141.9932  142.2963  170.9233 C.ar    1  UNL1        0.0016
      6 C         143.2350  142.6027  170.1397 C.ar    1  UNL1        0.0016
      7 C         143.2829  142.3162  168.6681 C.ar    1  UNL1        0.0188
      8 C         142.0891  141.7233  167.9802 C.ar    1  UNL1        0.0787
      9 N         141.8437  141.3350  166.5523 N.ar    1  UNL1       -0.3110
     10 N         139.8040  138.7274  163.1242 N.3     1  UNL1       -0.2646
     11 C         138.4656  139.2653  162.7130 C.3     1  UNL1        0.0725
     12 C         137.7886  140.3110  163.5486 C.3     1  UNL1        0.0178
     13 C         138.4502  140.8187  164.7954 C.3     1  UNL1        0.0103
     14 C         139.7887  140.2809  165.2066 C.3     1  UNL1        0.0729
     15 C         140.4656  139.2352  164.3710 C.3     1  UNL1        0.0800
     16 C         140.4810  137.6817  162.2885 C.3     1  UNL1        0.1587
     17 C         142.9302  138.8371  159.3874 C.3     1  UNL1        0.1149
     18 N         141.6701  138.5038  160.1298 N.am    1  UNL1       -0.2749
     19 C         140.3390  138.6595  159.4559 C.3     1  UNL1        0.1149
     20 C         141.7411  138.0149  161.5461 C.2     1  UNL1        0.2421
     21 O         143.0722  137.8592  162.2200 O.2     1  UNL1       -0.2734
     22 C         142.8202  141.4696  165.4217 C.3     1  UNL1        0.1544
     23 C         142.6824  142.5968  164.4417 C.3     1  UNL1        0.2298
     24 O         141.8566  143.7989  164.7924 O.3     1  UNL1       -0.4734
     25 C         140.4475  143.9130  164.2911 C.ar    1  UNL1        0.1386
     26 C         140.1344  143.6048  162.8569 C.ar    1  UNL1        0.0369
     27 C         138.7253  143.7190  162.3555 C.ar    1  UNL1        0.0031
     28 C         137.6292  144.1413  163.2884 C.ar    1  UNL1        0.0002
     29 C         137.9423  144.4494  164.7226 C.ar    1  UNL1        0.0031
     30 C         139.3514  144.3353  165.2239 C.ar    1  UNL1        0.0369
@<TRIPOS>BOND
     1    17    18    1
     2    18    19    1
     3    18    20   am
     4    20    21    2
     5    20    16    1
     6    16    10    1
     7    10    11    1
     8    11    12    1
     9    12    13    1
    10    13    14    1
    11    14     1    1
    12     1     2   ar
    13     2     3   ar
    14     3     4   ar
    15     4     5   ar
    16     5     6   ar
    17     6     7   ar
    18     7     8   ar
    19     8     9   ar
    20     9    22    1
    21    22    23    1
    22    23    24    1
    23    24    25    1
    24    25    26   ar
    25    26    27   ar
    26    27    28   ar
    27    28    29   ar
    28    29    30   ar
    29    14    15    1
    30    15    10    1
    31     9     1   ar
    32    30    25   ar
    33     8     3   ar
@<TRIPOS>MOLECULE
*****
 30 33 0 0 0
SMALL
GASTEIGER

@<TRIPOS>ATOM
      1 C         139.4371  140.3280  166.3046 C.ar    1  UNL1        0.1213
      2 N         139.4187  139.6637  167.6494 N.ar    1  UNL1       -0.2309
      3 C         139.8325  140.6786  168.6735 C.ar    1  UNL1        0.0983
      4 C         139.9951  140.5935  170.1622 C.ar    1  UNL1        0.0206
      5 C         140.4318  141.8000  170.9391 C.ar    1  UNL1        0.0016
      6 C         140.7059  143.0916  170.2273 C.ar    1  UNL1        0.0016
      7 C         140.5433  143.1767  168.7386 C.ar    1  UNL1        0.0188
      8 C         140.1066  141.9702  167.9617 C.ar    1  UNL1        0.0787
      9 N         139.8623  141.7535  166.4977 N.ar    1  UNL1       -0.3110
     10 N         138.1916  139.8596  162.5658 N.3     1  UNL1       -0.2646
     11 C         138.3991  138.3856  162.3804 C.3     1  UNL1        0.0725
     12 C         138.9526  137.5592  163.5031 C.3     1  UNL1        0.0178
     13 C         139.2987  138.2066  164.8112 C.3     1  UNL1        0.0103
     14 C         139.0911  139.6806  164.9965 C.3     1  UNL1        0.0729
     15 C         138.5376  140.5070  163.8738 C.3     1  UNL1        0.0800
     16 C         137.6380  140.6861  161.4430 C.3     1  UNL1        0.1587
     17 C         140.0196  143.3970  159.7911 C.3     1  UNL1        0.1149
     18 N         139.3958  142.0749  160.1274 N.am    1  UNL1       -0.2749
     19 C         139.9062  140.8196  159.4841 C.3     1  UNL1        0.1149
     20 C         138.2617  142.0082  161.1068 C.2     1  UNL1        0.2421
     21 O         137.7513  143.2635  161.7500 O.2     1  UNL1       -0.2734
     22 C         140.0161  142.7818  165.4165 C.3     1  UNL1        0.1544
     23 C         141.3829  143.2587  165.0239 C.3     1  UNL1        0.2298
     24 O         142.5852  142.8119  165.8015 O.3     1  UNL1       -0.4734
     25 C         143.4160  141.6658  165.3052 C.ar    1  UNL1        0.1386
     26 C         144.6155  141.9269  164.4433 C.ar    1  UNL1        0.0369
     27 C         145.4463  140.7809  163.9470 C.ar    1  UNL1        0.0031
     28 C         145.0775  139.3736  164.3125 C.ar    1  UNL1        0.0002
     29 C         143.8779  139.1125  165.1743 C.ar    1  UNL1        0.0031
     30 C         143.0472  140.2586  165.6707 C.ar    1  UNL1        0.0369
@<TRIPOS>BOND
     1    17    18    1
     2    18    19    1
     3    18    20   am
     4    20    21    2
     5    20    16    1
     6    16    10    1
     7    10    11    1
     8    11    12    1
     9    12    13    1
    10    13    14    1
    11    14     1    1
    12     1     2   ar
    13     2     3   ar
    14     3     4   ar
    15     4     5   ar
    16     5     6   ar
    17     6     7   ar
    18     7     8   ar
    19     8     9   ar
    20     9    22    1
    21    22    23    1
    22    23    24    1
    23    24    25    1
    24    25    26   ar
    25    26    27   ar
    26    27    28   ar
    27    28    29   ar
    28    29    30   ar
    29    14    15    1
    30    15    10    1
    31     9     1   ar
    32    30    25   ar
    33     8     3   ar
@<TRIPOS>MOLECULE
*****
 30 33 0 0 0
SMALL
GASTEIGER

@<TRIPOS>ATOM
      1 C         142.2816  140.8800  166.3426 C.ar    1  UNL1        0.1213
      2 N         142.5696  140.2705  167.6826 N.ar    1  UNL1       -0.2309
      3 C         141.8768  141.0959  168.7260 C.ar    1  UNL1        0.0983
      4 C         141.8056  140.9727  170.2191 C.ar    1  UNL1        0.0206
      5 C         141.0181  141.9691  171.0172 C.ar    1  UNL1        0.0016
      6 C         140.3019  143.0889  170.3221 C.ar    1  UNL1        0.0016
      7 C         140.3731  143.2121  168.8289 C.ar    1  UNL1        0.0188
      8 C         141.1605  142.2157  168.0308 C.ar    1  UNL1        0.0787
      9 N         141.4107  142.0822  166.5579 N.ar    1  UNL1       -0.3110
     10 N         144.0380  140.7847  162.7851 N.3     1  UNL1       -0.2646
     11 C         143.7688  139.3675  162.3739 C.3     1  UNL1        0.0725
     12 C         143.0039  138.4545  163.2856 C.3     1  UNL1        0.0178
     13 C         142.5082  138.9586  164.6085 C.3     1  UNL1        0.0103
     14 C         142.7773  140.3758  165.0197 C.3     1  UNL1        0.0729
     15 C         143.5422  141.2889  164.1080 C.3     1  UNL1        0.0800
     16 C         144.8029  141.6978  161.8734 C.3     1  UNL1        0.1587
     17 C         142.9268  143.5201  158.8885 C.3     1  UNL1        0.1149
     18 N         143.6503  142.4684  159.6762 N.am    1  UNL1       -0.2749
     19 C         143.9448  141.1355  159.0542 C.3     1  UNL1        0.1149
     20 C         144.0794  142.7495  161.0857 C.2     1  UNL1        0.2421
     21 O         143.7849  144.0824  161.7077 O.2     1  UNL1       -0.2734
     22 C         140.8827  142.9913  165.4880 C.3     1  UNL1        0.1544
     23 C         139.5022  142.7823  164.9401 C.3     1  UNL1        0.2298
     24 O         138.6762  141.6219  165.4105 O.3     1  UNL1       -0.4734
     25 C         138.8521  140.2719  164.7809 C.ar    1  UNL1        0.1386
     26 C         138.7976  139.0359  165.6289 C.ar    1  UNL1        0.0369
     27 C         138.9734  137.6859  164.9993 C.ar    1  UNL1        0.0031
     28 C         139.2038  137.5718  163.5214 C.ar    1  UNL1        0.0002
     29 C         139.2583  138.8078  162.6734 C.ar    1  UNL1        0.0031
     30 C         139.0824  140.1578  163.3030 C.ar    1  UNL1        0.0369
@<TRIPOS>BOND
     1    17    18    1
     2    18    19    1
     3    18    20   am
     4    20    21    2
     5    20    16    1
     6    16    10    1
     7    10    11    1
     8    11    12    1
     9    12    13    1
    10    13    14    1
    11    14     1    1
    12     1     2   ar
    13     2     3   ar
    14     3     4   ar
    15     4     5   ar
    16     5     6   ar
    17     6     7   ar
    18     7     8   ar
    19     8     9   ar
    20     9    22    1
    21    22    23    1
    22    23    24    1
    23    24    25    1
    24    25    26   ar
    25    26    27   ar
    26    27    28   ar
    27    28    29   ar
    28    29    30   ar
    29    14    15    1
    30    15    10    1
    31     9     1   ar
    32    30    25   ar
    33     8     3   ar
@<TRIPOS>MOLECULE
*****
 30 33 0 0 0
SMALL
GASTEIGER

@<TRIPOS>ATOM
      1 C         140.3325  139.4275  166.1127 C.ar    1  UNL1        0.1213
      2 N         139.3183  139.7625  167.1659 N.ar    1  UNL1       -0.2309
      3 C         140.0545  140.0857  168.4323 C.ar    1  UNL1        0.0983
      4 C         139.5769  140.4856  169.7968 C.ar    1  UNL1        0.0206
      5 C         140.5685  140.7503  170.8907 C.ar    1  UNL1        0.0016
      6 C         142.0376  140.6151  170.6201 C.ar    1  UNL1        0.0016
      7 C         142.5153  140.2151  169.2556 C.ar    1  UNL1        0.0188
      8 C         141.5237  139.9504  168.1617 C.ar    1  UNL1        0.0787
      9 N         141.6954  139.5437  166.7281 N.ar    1  UNL1       -0.3110
     10 N         140.4089  139.3859  162.1450 N.3     1  UNL1       -0.2646
     11 C         139.4422  138.2764  161.8545 C.3     1  UNL1        0.0725
     12 C         138.7723  137.5506  162.9834 C.3     1  UNL1        0.0178
     13 C         139.0690  137.9343  164.4028 C.3     1  UNL1        0.0103
     14 C         140.0357  139.0438  164.6933 C.3     1  UNL1        0.0729
     15 C         140.7057  139.7696  163.5644 C.3     1  UNL1        0.0800
     16 C         141.0790  140.1117  161.0162 C.3     1  UNL1        0.1587
     17 C         144.6877  141.5984  161.7352 C.3     1  UNL1        0.1149
     18 N         143.5905  140.6163  161.4491 N.am    1  UNL1       -0.2749
     19 C         143.9077  139.1568  161.3100 C.3     1  UNL1        0.1149
     20 C         142.1761  141.0937  161.3022 C.2     1  UNL1        0.2421
     21 O         141.8589  142.5532  161.4413 O.2     1  UNL1       -0.2734
     22 C         143.0010  139.2965  166.0322 C.3     1  UNL1        0.1544
     23 C         143.6858  140.4143  165.3032 C.3     1  UNL1        0.2298
     24 O         143.7374  141.7851  165.9102 O.3     1  UNL1       -0.4734
     25 C         143.1283  142.9492  165.1865 C.ar    1  UNL1        0.1386
     26 C         141.6367  143.0746  165.0889 C.ar    1  UNL1        0.0369
     27 C         141.0276  144.2387  164.3652 C.ar    1  UNL1        0.0031
     28 C         141.9101  145.2775  163.7390 C.ar    1  UNL1        0.0002
     29 C         143.4016  145.1521  163.8365 C.ar    1  UNL1        0.0031
     30 C         144.0107  143.9880  164.5603 C.ar    1  UNL1        0.0369
@<TRIPOS>BOND
     1    17    18    1
     2    18    19    1
     3    18    20   am
     4    20    21    2
     5    20    16    1
     6    16    10    1
     7    10    11    1
     8    11    12    1
     9    12    13    1
    10    13    14    1
    11    14     1    1
    12     1     2   ar
    13     2     3   ar
    14     3     4   ar
    15     4     5   ar
    16     5     6   ar
    17     6     7   ar
    18     7     8   ar
    19     8     9   ar
    20     9    22    1
    21    22    23    1
    22    23    24    1
    23    24    25    1
    24    25    26   ar
    25    26    27   ar
    26    27    28   ar
    27    28    29   ar
    28    29    30   ar
    29    14    15    1
    30    15    10    1
    31     9     1   ar
    32    30    25   ar
    33     8     3   ar
@<TRIPOS>MOLECULE
*****
 30 33 0 0 0
SMALL
GASTEIGER

@<TRIPOS>ATOM
      1 C         143.3933  140.4030  162.9119 C.ar    1  UNL1        0.1213
      2 N         143.8951  141.7398  162.4523 N.ar    1  UNL1       -0.2309
      3 C         144.0775  141.6801  160.9647 C.ar    1  UNL1        0.0983
      4 C         144.5476  142.6991  159.9694 C.ar    1  UNL1        0.0206
      5 C         144.6286  142.3444  158.5142 C.ar    1  UNL1        0.0016
      6 C         144.2395  140.9707  158.0543 C.ar    1  UNL1        0.0016
      7 C         143.7694  139.9517  159.0496 C.ar    1  UNL1        0.0188
      8 C         143.6884  140.3064  160.5048 C.ar    1  UNL1        0.0787
      9 N         143.2656  139.5171  161.7082 N.ar    1  UNL1       -0.3110
     10 N         141.7500  140.4254  166.5242 N.3     1  UNL1       -0.2646
     11 C         142.4387  139.2524  167.1563 C.3     1  UNL1        0.0725
     12 C         143.4457  138.4629  166.3736 C.3     1  UNL1        0.0178
     13 C         143.7639  138.8464  164.9588 C.3     1  UNL1        0.0103
     14 C         143.0751  140.0195  164.3267 C.3     1  UNL1        0.0729
     15 C         142.0682  140.8090  165.1094 C.3     1  UNL1        0.0800
     16 C         140.7430  141.2150  167.3070 C.3     1  UNL1        0.1587
     17 C         140.9494  141.1846  171.2701 C.3     1  UNL1        0.1149
     18 N         141.2293  141.5357  169.8389 N.am    1  UNL1       -0.2749
     19 C         142.2756  142.5585  169.5083 C.3     1  UNL1        0.1149
     20 C         140.4630  140.8639  168.7382 C.2     1  UNL1        0.2421
     21 O         139.4167  139.8411  169.0687 O.2     1  UNL1       -0.2734
     22 C         142.7972  138.0921  161.7080 C.3     1  UNL1        0.1544
     23 C         141.3332  137.7838  161.6005 C.3     1  UNL1        0.2298
     24 O         140.6075  137.1751  162.7636 O.3     1  UNL1       -0.4734
     25 C         139.7700  138.0382  163.6600 C.ar    1  UNL1        0.1386
     26 C         139.2740  139.3670  163.1722 C.ar    1  UNL1        0.0369
     27 C         138.4365  140.2302  164.0687 C.ar    1  UNL1        0.0031
     28 C         138.0950  139.7644  165.4530 C.ar    1  UNL1        0.0002
     29 C         138.5910  138.4355  165.9408 C.ar    1  UNL1        0.0031
     30 C         139.4285  137.5724  165.0444 C.ar    1  UNL1        0.0369
@<TRIPOS>BOND
     1    17    18    1
     2    18    19    1
     3    18    20   am
     4    20    21    2
     5    20    16    1
     6    16    10    1
     7    10    11    1
     8    11    12    1
     9    12    13    1
    10    13    14    1
    11    14     1    1
    12     1     2   ar
    13     2     3   ar
    14     3     4   ar
    15     4     5   ar
    16     5     6   ar
    17     6     7   ar
    18     7     8   ar
    19     8     9   ar
    20     9    22    1
    21    22    23    1
    22    23    24    1
    23    24    25    1
    24    25    26   ar
    25    26    27   ar
    26    27    28   ar
    27    28    29   ar
    28    29    30   ar
    29    14    15    1
    30    15    10    1
    31     9     1   ar
    32    30    25   ar
    33     8     3   ar
