@<TRIPOS>MOLECULE
*****
 21 23 0 0 0
SMALL
GASTEIGER

@<TRIPOS>ATOM
      1 N         141.7748  141.1220  165.8510 N.pl3   1  UNL1       -0.2860
      2 C         143.0377  141.2537  165.0523 C.ar    1  UNL1        0.0576
      3 C         143.9407  142.4321  165.2659 C.ar    1  UNL1        0.0153
      4 C         145.2036  142.5638  164.4672 C.ar    1  UNL1        0.0013
      5 C         145.5634  141.5169  163.4550 C.ar    1  UNL1        0.0006
      6 C         144.6603  140.3384  163.2414 C.ar    1  UNL1        0.0077
      7 C         143.3975  140.2068  164.0400 C.ar    1  UNL1        0.0431
      8 S         142.4944  139.0283  163.8264 S.3     1  UNL1       -0.0844
      9 C         141.2315  138.8967  164.6251 C.ar    1  UNL1        0.0431
     10 C         140.3284  137.7182  164.4115 C.ar    1  UNL1        0.0086
     11 C         139.0656  137.5866  165.2101 C.ar    1  UNL1        0.0120
     12 C         138.7058  138.6334  166.2224 C.ar    1  UNL1        0.0589
     13 CL        137.4430  138.5018  167.0210 Cl      1  UNL1       -0.0822
     14 C         139.6088  139.8119  166.4360 C.ar    1  UNL1        0.0267
     15 C         140.8717  139.9435  165.6373 C.ar    1  UNL1        0.0585
     16 C         141.4150  142.1689  166.8632 C.3     1  UNL1        0.0970
     17 C         142.0313  142.1334  168.2303 C.3     1  UNL1        0.0391
     18 C         141.4670  141.2273  169.2841 C.3     1  UNL1        0.0739
     19 C         139.8943  142.8955  170.5062 C.3     1  UNL1        0.0897
     20 N         140.1409  141.5408  169.9112 N.3     1  UNL1       -0.2703
     21 C         139.0616  140.4998  169.9433 C.3     1  UNL1        0.0897
@<TRIPOS>BOND
     1    19    20    1
     2    20    21    1
     3    20    18    1
     4    18    17    1
     5    17    16    1
     6    16     1    1
     7     1     2    1
     8     2     3   ar
     9     3     4   ar
    10     4     5   ar
    11     5     6   ar
    12     6     7   ar
    13     7     8    1
    14     8     9    1
    15     9    10   ar
    16    10    11   ar
    17    11    12   ar
    18    12    13    1
    19    12    14   ar
    20    14    15   ar
    21    15     1    1
    22     7     2   ar
    23    15     9   ar
@<TRIPOS>MOLECULE
*****
 21 23 0 0 0
SMALL
GASTEIGER

@<TRIPOS>ATOM
      1 N         141.7098  141.1583  165.7342 N.pl3   1  UNL1       -0.2860
      2 C         143.0296  141.2592  165.0285 C.ar    1  UNL1        0.0576
      3 C         143.8533  142.5065  165.1532 C.ar    1  UNL1        0.0153
      4 C         145.1731  142.6074  164.4475 C.ar    1  UNL1        0.0013
      5 C         145.6691  141.4609  163.6172 C.ar    1  UNL1        0.0006
      6 C         144.8454  140.2135  163.4925 C.ar    1  UNL1        0.0077
      7 C         143.5256  140.1127  164.1981 C.ar    1  UNL1        0.0431
      8 S         142.7018  138.8653  164.0735 S.3     1  UNL1       -0.0844
      9 C         141.3821  138.7645  164.7791 C.ar    1  UNL1        0.0431
     10 C         140.5583  137.5171  164.6545 C.ar    1  UNL1        0.0086
     11 C         139.2385  137.4163  165.3601 C.ar    1  UNL1        0.0120
     12 C         138.7425  138.5628  166.1905 C.ar    1  UNL1        0.0589
     13 CL        137.4227  138.4620  166.8961 Cl      1  UNL1       -0.0822
     14 C         139.5662  139.8101  166.3152 C.ar    1  UNL1        0.0267
     15 C         140.8860  139.9110  165.6095 C.ar    1  UNL1        0.0585
     16 C         141.2137  142.3048  166.5645 C.3     1  UNL1        0.0970
     17 C         140.2857  143.3191  165.9646 C.3     1  UNL1        0.0391
     18 C         140.0345  143.3237  164.4858 C.3     1  UNL1        0.0739
     19 C         141.6837  145.1894  163.7443 C.3     1  UNL1        0.0897
     20 N         140.3262  144.5545  163.6793 N.3     1  UNL1       -0.2703
     21 C         139.2605  145.1502  162.8080 C.3     1  UNL1        0.0897
@<TRIPOS>BOND
     1    19    20    1
     2    20    21    1
     3    20    18    1
     4    18    17    1
     5    17    16    1
     6    16     1    1
     7     1     2    1
     8     2     3   ar
     9     3     4   ar
    10     4     5   ar
    11     5     6   ar
    12     6     7   ar
    13     7     8    1
    14     8     9    1
    15     9    10   ar
    16    10    11   ar
    17    11    12   ar
    18    12    13    1
    19    12    14   ar
    20    14    15   ar
    21    15     1    1
    22     7     2   ar
    23    15     9   ar
@<TRIPOS>MOLECULE
*****
 21 23 0 0 0
SMALL
GASTEIGER

@<TRIPOS>ATOM
      1 N         140.8003  142.4579  165.0171 N.pl3   1  UNL1       -0.2860
      2 C         141.9489  142.9112  164.1655 C.ar    1  UNL1        0.0576
      3 C         142.3395  144.3593  164.1420 C.ar    1  UNL1        0.0153
      4 C         143.4881  144.8125  163.2905 C.ar    1  UNL1        0.0013
      5 C         144.2462  143.8177  162.4624 C.ar    1  UNL1        0.0006
      6 C         143.8556  142.3697  162.4859 C.ar    1  UNL1        0.0077
      7 C         142.7070  141.9164  163.3375 C.ar    1  UNL1        0.0431
      8 S         142.3164  140.4683  163.3610 S.3     1  UNL1       -0.0844
      9 C         141.1678  140.0151  164.2126 C.ar    1  UNL1        0.0431
     10 C         140.7773  138.5669  164.2361 C.ar    1  UNL1        0.0086
     11 C         139.6286  138.1137  165.0877 C.ar    1  UNL1        0.0120
     12 C         138.8706  139.1085  165.9158 C.ar    1  UNL1        0.0589
     13 CL        137.7219  138.6552  166.7673 Cl      1  UNL1       -0.0822
     14 C         139.2611  140.5565  165.8922 C.ar    1  UNL1        0.0267
     15 C         140.4097  141.0099  165.0407 C.ar    1  UNL1        0.0585
     16 C         140.0422  143.4527  165.8452 C.3     1  UNL1        0.0970
     17 C         139.0491  144.3689  165.1939 C.3     1  UNL1        0.0391
     18 C         137.8383  143.8014  164.5143 C.3     1  UNL1        0.0739
     19 C         137.3063  141.7304  163.0383 C.3     1  UNL1        0.0897
     20 N         137.9847  143.0558  163.2209 N.3     1  UNL1       -0.2703
     21 C         138.8093  143.6355  162.1102 C.3     1  UNL1        0.0897
@<TRIPOS>BOND
     1    19    20    1
     2    20    21    1
     3    20    18    1
     4    18    17    1
     5    17    16    1
     6    16     1    1
     7     1     2    1
     8     2     3   ar
     9     3     4   ar
    10     4     5   ar
    11     5     6   ar
    12     6     7   ar
    13     7     8    1
    14     8     9    1
    15     9    10   ar
    16    10    11   ar
    17    11    12   ar
    18    12    13    1
    19    12    14   ar
    20    14    15   ar
    21    15     1    1
    22     7     2   ar
    23    15     9   ar
@<TRIPOS>MOLECULE
*****
 21 23 0 0 0
SMALL
GASTEIGER

@<TRIPOS>ATOM
      1 N         141.3290  140.4787  165.9054 N.pl3   1  UNL1       -0.2860
      2 C         140.1751  139.5280  166.0267 C.ar    1  UNL1        0.0576
      3 C         139.0880  139.7916  167.0260 C.ar    1  UNL1        0.0153
      4 C         137.9341  138.8409  167.1472 C.ar    1  UNL1        0.0013
      5 C         137.8674  137.6266  166.2692 C.ar    1  UNL1        0.0006
      6 C         138.9545  137.3629  165.2700 C.ar    1  UNL1        0.0077
      7 C         140.1084  138.3136  165.1487 C.ar    1  UNL1        0.0431
      8 S         141.1956  138.0499  164.1494 S.3     1  UNL1       -0.0844
      9 C         142.3495  139.0006  164.0282 C.ar    1  UNL1        0.0431
     10 C         143.4367  138.7370  163.0289 C.ar    1  UNL1        0.0086
     11 C         144.5906  139.6877  162.9077 C.ar    1  UNL1        0.0120
     12 C         144.6573  140.9020  163.7857 C.ar    1  UNL1        0.0589
     13 CL        145.8112  141.8527  163.6644 Cl      1  UNL1       -0.0822
     14 C         143.5701  141.1657  164.7849 C.ar    1  UNL1        0.0267
     15 C         142.4162  140.2150  164.9062 C.ar    1  UNL1        0.0585
     16 C         141.3958  141.6930  166.7834 C.3     1  UNL1        0.0970
     17 C         140.5559  142.8947  166.4665 C.3     1  UNL1        0.0391
     18 C         140.6478  143.5387  165.1149 C.3     1  UNL1        0.0739
     19 C         138.5509  144.9876  165.6189 C.3     1  UNL1        0.0897
     20 N         139.5532  144.4486  164.6417 N.3     1  UNL1       -0.2703
     21 C         139.4608  144.8196  163.1912 C.3     1  UNL1        0.0897
@<TRIPOS>BOND
     1    19    20    1
     2    20    21    1
     3    20    18    1
     4    18    17    1
     5    17    16    1
     6    16     1    1
     7     1     2    1
     8     2     3   ar
     9     3     4   ar
    10     4     5   ar
    11     5     6   ar
    12     6     7   ar
    13     7     8    1
    14     8     9    1
    15     9    10   ar
    16    10    11   ar
    17    11    12   ar
    18    12    13    1
    19    12    14   ar
    20    14    15   ar
    21    15     1    1
    22     7     2   ar
    23    15     9   ar
@<TRIPOS>MOLECULE
*****
 21 23 0 0 0
SMALL
GASTEIGER

@<TRIPOS>ATOM
      1 N         139.2684  140.4257  166.1535 N.pl3   1  UNL1       -0.2860
      2 C         138.9121  141.3922  165.0631 C.ar    1  UNL1        0.0576
      3 C         137.7178  141.1344  164.1930 C.ar    1  UNL1        0.0153
      4 C         137.3615  142.1008  163.1027 C.ar    1  UNL1        0.0013
      5 C         138.1996  143.3252  162.8823 C.ar    1  UNL1        0.0006
      6 C         139.3940  143.5831  163.7523 C.ar    1  UNL1        0.0077
      7 C         139.7502  142.6166  164.8427 C.ar    1  UNL1        0.0431
      8 S         140.9446  142.8744  165.7128 S.3     1  UNL1       -0.0844
      9 C         141.3009  141.9080  166.8032 C.ar    1  UNL1        0.0431
     10 C         142.4952  142.1658  167.6733 C.ar    1  UNL1        0.0086
     11 C         142.8515  141.1993  168.7637 C.ar    1  UNL1        0.0120
     12 C         142.0134  139.9750  168.9840 C.ar    1  UNL1        0.0589
     13 CL        142.3696  139.0085  170.0744 Cl      1  UNL1       -0.0822
     14 C         140.8191  139.7171  168.1140 C.ar    1  UNL1        0.0267
     15 C         140.4628  140.6836  167.0236 C.ar    1  UNL1        0.0585
     16 C         138.4303  139.2014  166.3739 C.3     1  UNL1        0.0970
     17 C         138.6585  137.9761  165.5392 C.3     1  UNL1        0.0391
     18 C         139.9568  137.7966  164.8098 C.3     1  UNL1        0.0739
     19 C         141.2745  137.5831  162.5808 C.3     1  UNL1        0.0897
     20 N         139.9752  137.7549  163.3104 N.3     1  UNL1       -0.2703
     21 C         138.6944  137.8849  162.5408 C.3     1  UNL1        0.0897
@<TRIPOS>BOND
     1    19    20    1
     2    20    21    1
     3    20    18    1
     4    18    17    1
     5    17    16    1
     6    16     1    1
     7     1     2    1
     8     2     3   ar
     9     3     4   ar
    10     4     5   ar
    11     5     6   ar
    12     6     7   ar
    13     7     8    1
    14     8     9    1
    15     9    10   ar
    16    10    11   ar
    17    11    12   ar
    18    12    13    1
    19    12    14   ar
    20    14    15   ar
    21    15     1    1
    22     7     2   ar
    23    15     9   ar
@<TRIPOS>MOLECULE
*****
 21 23 0 0 0
SMALL
GASTEIGER

@<TRIPOS>ATOM
      1 N         139.8748  141.7830  165.0203 N.pl3   1  UNL1       -0.2860
      2 C         139.5146  140.6079  164.1603 C.ar    1  UNL1        0.0576
      3 C         139.4620  140.7582  162.6688 C.ar    1  UNL1        0.0153
      4 C         139.1017  139.5832  161.8089 C.ar    1  UNL1        0.0013
      5 C         138.7941  138.2579  162.4405 C.ar    1  UNL1        0.0006
      6 C         138.8467  138.1076  163.9320 C.ar    1  UNL1        0.0077
      7 C         139.2069  139.2826  164.7919 C.ar    1  UNL1        0.0431
      8 S         139.2595  139.1324  166.2835 S.3     1  UNL1       -0.0844
      9 C         139.6197  140.3074  167.1434 C.ar    1  UNL1        0.0431
     10 C         139.6724  140.1572  168.6350 C.ar    1  UNL1        0.0086
     11 C         140.0326  141.3322  169.4949 C.ar    1  UNL1        0.0120
     12 C         140.3402  142.6575  168.8633 C.ar    1  UNL1        0.0589
     13 CL        140.7005  143.8326  169.7232 Cl      1  UNL1       -0.0822
     14 C         140.2876  142.8078  167.3718 C.ar    1  UNL1        0.0267
     15 C         139.9274  141.6327  166.5118 C.ar    1  UNL1        0.0585
     16 C         140.1825  143.1083  164.3887 C.3     1  UNL1        0.0970
     17 C         139.1002  144.1355  164.2358 C.3     1  UNL1        0.0391
     18 C         138.4715  144.3686  162.8940 C.3     1  UNL1        0.0739
     19 C         139.7204  146.2991  161.6842 C.3     1  UNL1        0.0897
     20 N         139.3075  144.8585  161.7489 N.3     1  UNL1       -0.2703
     21 C         139.7306  143.9078  160.6686 C.3     1  UNL1        0.0897
@<TRIPOS>BOND
     1    19    20    1
     2    20    21    1
     3    20    18    1
     4    18    17    1
     5    17    16    1
     6    16     1    1
     7     1     2    1
     8     2     3   ar
     9     3     4   ar
    10     4     5   ar
    11     5     6   ar
    12     6     7   ar
    13     7     8    1
    14     8     9    1
    15     9    10   ar
    16    10    11   ar
    17    11    12   ar
    18    12    13    1
    19    12    14   ar
    20    14    15   ar
    21    15     1    1
    22     7     2   ar
    23    15     9   ar
@<TRIPOS>MOLECULE
*****
 21 23 0 0 0
SMALL
GASTEIGER

@<TRIPOS>ATOM
      1 N         141.6651  138.9380  164.4804 N.pl3   1  UNL1       -0.2860
      2 C         140.3912  138.7428  165.2481 C.ar    1  UNL1        0.0576
      3 C         139.5459  137.5283  165.0022 C.ar    1  UNL1        0.0153
      4 C         138.2722  137.3332  165.7699 C.ar    1  UNL1        0.0013
      5 C         137.8437  138.3525  166.7835 C.ar    1  UNL1        0.0006
      6 C         138.6890  139.5670  167.0294 C.ar    1  UNL1        0.0077
      7 C         139.9628  139.7621  166.2617 C.ar    1  UNL1        0.0431
      8 S         140.8081  140.9766  166.5076 S.3     1  UNL1       -0.0844
      9 C         142.0819  141.1717  165.7400 C.ar    1  UNL1        0.0431
     10 C         142.9273  142.3862  165.9859 C.ar    1  UNL1        0.0086
     11 C         144.2010  142.5814  165.2182 C.ar    1  UNL1        0.0120
     12 C         144.6295  141.5621  164.2046 C.ar    1  UNL1        0.0589
     13 CL        145.9033  141.7572  163.4369 Cl      1  UNL1       -0.0822
     14 C         143.7842  140.3476  163.9586 C.ar    1  UNL1        0.0267
     15 C         142.5104  140.1524  164.7263 C.ar    1  UNL1        0.0585
     16 C         142.0935  137.9187  163.4668 C.3     1  UNL1        0.0970
     17 C         141.5001  137.9353  162.0893 C.3     1  UNL1        0.0391
     18 C         140.8276  139.1745  161.5773 C.3     1  UNL1        0.0739
     19 C         138.9185  140.7069  162.4475 C.3     1  UNL1        0.0897
     20 N         139.3715  139.4062  161.8534 N.3     1  UNL1       -0.2703
     21 C         138.3684  138.3373  161.5353 C.3     1  UNL1        0.0897
@<TRIPOS>BOND
     1    19    20    1
     2    20    21    1
     3    20    18    1
     4    18    17    1
     5    17    16    1
     6    16     1    1
     7     1     2    1
     8     2     3   ar
     9     3     4   ar
    10     4     5   ar
    11     5     6   ar
    12     6     7   ar
    13     7     8    1
    14     8     9    1
    15     9    10   ar
    16    10    11   ar
    17    11    12   ar
    18    12    13    1
    19    12    14   ar
    20    14    15   ar
    21    15     1    1
    22     7     2   ar
    23    15     9   ar
@<TRIPOS>MOLECULE
*****
 21 23 0 0 0
SMALL
GASTEIGER

@<TRIPOS>ATOM
      1 N         141.8774  140.6138  166.9109 N.pl3   1  UNL1       -0.2860
      2 C         141.9925  141.2823  168.2488 C.ar    1  UNL1        0.0576
      3 C         143.2329  142.0491  168.5999 C.ar    1  UNL1        0.0153
      4 C         143.3479  142.7175  169.9377 C.ar    1  UNL1        0.0013
      5 C         142.2225  142.6192  170.9245 C.ar    1  UNL1        0.0006
      6 C         140.9821  141.8524  170.5734 C.ar    1  UNL1        0.0077
      7 C         140.8670  141.1840  169.2356 C.ar    1  UNL1        0.0431
      8 S         139.6265  140.4171  168.8845 S.3     1  UNL1       -0.0844
      9 C         139.5115  139.7487  167.5466 C.ar    1  UNL1        0.0431
     10 C         138.2710  138.9819  167.1955 C.ar    1  UNL1        0.0086
     11 C         138.1560  138.3134  165.8576 C.ar    1  UNL1        0.0120
     12 C         139.2814  138.4118  164.8708 C.ar    1  UNL1        0.0589
     13 CL        139.1664  137.7433  163.5330 Cl      1  UNL1       -0.0822
     14 C         140.5218  139.1785  165.2219 C.ar    1  UNL1        0.0267
     15 C         140.6369  139.8470  166.5598 C.ar    1  UNL1        0.0585
     16 C         143.0028  140.7121  165.9241 C.3     1  UNL1        0.0970
     17 C         143.1790  141.9591  165.1092 C.3     1  UNL1        0.0391
     18 C         142.0876  142.4115  164.1850 C.3     1  UNL1        0.0739
     19 C         140.1494  143.4266  165.5862 C.3     1  UNL1        0.0897
     20 N         141.2285  143.5839  164.5562 N.3     1  UNL1       -0.2703
     21 C         141.4486  144.9133  163.8974 C.3     1  UNL1        0.0897
@<TRIPOS>BOND
     1    19    20    1
     2    20    21    1
     3    20    18    1
     4    18    17    1
     5    17    16    1
     6    16     1    1
     7     1     2    1
     8     2     3   ar
     9     3     4   ar
    10     4     5   ar
    11     5     6   ar
    12     6     7   ar
    13     7     8    1
    14     8     9    1
    15     9    10   ar
    16    10    11   ar
    17    11    12   ar
    18    12    13    1
    19    12    14   ar
    20    14    15   ar
    21    15     1    1
    22     7     2   ar
    23    15     9   ar
@<TRIPOS>MOLECULE
*****
 21 23 0 0 0
SMALL
GASTEIGER

@<TRIPOS>ATOM
      1 N         139.8495  139.5111  164.9952 N.pl3   1  UNL1       -0.2860
      2 C         140.7122  139.0727  163.8490 C.ar    1  UNL1        0.0576
      3 C         140.1263  138.9494  162.4737 C.ar    1  UNL1        0.0153
      4 C         140.9890  138.5109  161.3277 C.ar    1  UNL1        0.0013
      5 C         142.4375  138.1959  161.5569 C.ar    1  UNL1        0.0006
      6 C         143.0233  138.3192  162.9322 C.ar    1  UNL1        0.0077
      7 C         142.1607  138.7576  164.0783 C.ar    1  UNL1        0.0431
      8 S         142.7465  138.8810  165.4537 S.3     1  UNL1       -0.0844
      9 C         141.8838  139.3194  166.5998 C.ar    1  UNL1        0.0431
     10 C         142.4696  139.4428  167.9752 C.ar    1  UNL1        0.0086
     11 C         141.6069  139.8812  169.1213 C.ar    1  UNL1        0.0120
     12 C         140.1584  140.1963  168.8920 C.ar    1  UNL1        0.0589
     13 CL        139.2958  140.6347  170.0381 Cl      1  UNL1       -0.0822
     14 C         139.5726  140.0729  167.5167 C.ar    1  UNL1        0.0267
     15 C         140.4353  139.6345  166.3705 C.ar    1  UNL1        0.0585
     16 C         138.4010  139.8262  164.7660 C.3     1  UNL1        0.0970
     17 C         137.9899  141.2098  164.3576 C.3     1  UNL1        0.0391
     18 C         138.9207  142.3649  164.5793 C.3     1  UNL1        0.0739
     19 C         137.7478  144.1050  163.0475 C.3     1  UNL1        0.0897
     20 N         138.4490  143.7668  164.3296 N.3     1  UNL1       -0.2703
     21 C         138.6787  144.8305  165.3620 C.3     1  UNL1        0.0897
@<TRIPOS>BOND
     1    19    20    1
     2    20    21    1
     3    20    18    1
     4    18    17    1
     5    17    16    1
     6    16     1    1
     7     1     2    1
     8     2     3   ar
     9     3     4   ar
    10     4     5   ar
    11     5     6   ar
    12     6     7   ar
    13     7     8    1
    14     8     9    1
    15     9    10   ar
    16    10    11   ar
    17    11    12   ar
    18    12    13    1
    19    12    14   ar
    20    14    15   ar
    21    15     1    1
    22     7     2   ar
    23    15     9   ar
