@<TRIPOS>MOLECULE
*****
 43 46 0 0 0
SMALL
GASTEIGER

@<TRIPOS>ATOM
      1 C         141.4223  141.5523  159.9799 C.3     1  UNL1        0.0331
      2 C         140.9030  142.9482  159.8020 C.3     1  UNL1        0.0201
      3 C         141.8234  143.8817  160.5311 C.3     1  UNL1        0.0722
      4 N         142.9116  143.0626  161.1597 N.3     1  UNL1       -0.2726
      5 C         142.6636  141.6230  160.8190 C.3     1  UNL1        0.0735
      6 C         140.8080  140.3047  159.4175 C.3     1  UNL1        0.0702
      7 N         139.6434  139.6633  160.1120 N.3     1  UNL1       -0.2937
      8 H         139.2608  140.3607  160.7504 H       1  UNL1        0.1236
      9 C         139.8441  138.4093  160.9103 C.3     1  UNL1        0.0956
     10 C         139.5864  138.5479  164.8681 C.ar    1  UNL1       -0.0234
     11 C         139.1898  138.4622  163.4241 C.ar    1  UNL1       -0.0072
     12 C         140.2408  138.4950  162.3544 C.ar    1  UNL1       -0.0070
     13 C         141.6885  138.6135  162.7287 C.ar    1  UNL1       -0.0072
     14 C         142.0851  138.6992  164.1728 C.ar    1  UNL1       -0.0234
     15 C         141.0341  138.6664  165.2425 C.ar    1  UNL1       -0.0086
     16 C         138.5252  140.0146  165.9739 C.3     1  UNL1        0.0044
     17 C         138.5354  138.5151  165.9378 C.3     1  UNL1        0.0189
     18 C         138.5455  137.0155  165.9018 C.3     1  UNL1        0.0044
     19 C         137.4843  138.4823  167.0075 C.3     1  UNL1        0.0044
     20 C         143.5328  138.8177  164.5472 C.3     1  UNL1        0.0189
     21 C         143.8748  139.1408  163.1229 C.3     1  UNL1        0.0044
     22 C         143.1909  138.4945  165.9715 C.3     1  UNL1        0.0044
     23 C         144.9805  138.9361  164.9217 C.3     1  UNL1        0.0044
     24 C         144.0481  143.5904  161.9841 C.3     1  UNL1        0.0721
     25 C         143.8511  144.8040  162.8433 C.3     1  UNL1        0.0173
     26 C         143.6894  144.6542  164.3270 C.3     1  UNL1        0.0014
     27 C         144.3804  143.5347  165.0476 C.3     1  UNL1        0.0007
     28 C         143.6641  142.2375  165.2804 C.3     1  UNL1        0.0087
     29 C         142.3436  142.2272  165.9920 C.3     1  UNL1        0.0446
     30 C         141.0924  142.6057  165.2566 C.ar    1  UNL1       -0.0183
     31 C         140.8179  142.0314  163.8983 C.ar    1  UNL1       -0.0017
     32 C         139.5667  142.4099  163.1628 C.ar    1  UNL1        0.0293
     33 C         138.5899  143.3629  163.7855 C.ar    1  UNL1        0.1401
     34 F         137.3385  143.7415  163.0500 F       1  UNL1       -0.2042
     35 C         138.8643  143.9372  165.1438 C.ar    1  UNL1        0.0293
     36 C         140.1156  143.5587  165.8793 C.ar    1  UNL1       -0.0017
     37 C         142.2746  141.8382  167.4392 C.ar    1  UNL1       -0.0183
     38 C         141.1742  140.9410  167.9229 C.ar    1  UNL1       -0.0017
     39 C         141.1052  140.5521  169.3700 C.ar    1  UNL1        0.0293
     40 C         142.1365  141.0604  170.3333 C.ar    1  UNL1        0.1401
     41 F         142.0675  140.6715  171.7803 F       1  UNL1       -0.2042
     42 C         143.2369  141.9577  169.8495 C.ar    1  UNL1        0.0293
     43 C         143.3060  142.3466  168.4023 C.ar    1  UNL1       -0.0017
@<TRIPOS>BOND
     1    16    17    1
     2    17    18    1
     3    17    19    1
     4    17    10    1
     5    10    11   ar
     6    11    12   ar
     7    12     9    1
     8     9     7    1
     9     7     6    1
    10     6     1    1
    11     1     2    1
    12     2     3    1
    13     3     4    1
    14     4    24    1
    15    24    25    1
    16    25    26    1
    17    26    27    1
    18    27    28    1
    19    28    29    1
    20    29    30    1
    21    30    31   ar
    22    31    32   ar
    23    32    33   ar
    24    33    34    1
    25    33    35   ar
    26    35    36   ar
    27    29    37    1
    28    37    38   ar
    29    38    39   ar
    30    39    40   ar
    31    40    41    1
    32    40    42   ar
    33    42    43   ar
    34     4     5    1
    35    12    13   ar
    36    13    14   ar
    37    14    20    1
    38    20    21    1
    39    20    22    1
    40    20    23    1
    41    14    15   ar
    42    15    10   ar
    43     5     1    1
    44    36    30   ar
    45    43    37   ar
    46     7     8    1
@<TRIPOS>MOLECULE
*****
 43 46 0 0 0
SMALL
GASTEIGER

@<TRIPOS>ATOM
      1 C         141.5312  141.5869  159.9434 C.3     1  UNL1        0.0331
      2 C         141.1027  143.0000  159.6795 C.3     1  UNL1        0.0201
      3 C         142.0223  143.9122  160.4360 C.3     1  UNL1        0.0722
      4 N         143.0192  143.0628  161.1674 N.3     1  UNL1       -0.2726
      5 C         142.7156  141.6258  160.8630 C.3     1  UNL1        0.0735
      6 C         140.8881  140.3518  159.3856 C.3     1  UNL1        0.0702
      7 N         139.7382  139.7139  160.1070 N.3     1  UNL1       -0.2937
      8 H         139.3780  140.4095  160.7603 H       1  UNL1        0.1236
      9 C         139.9513  138.4530  160.8911 C.3     1  UNL1        0.0956
     10 C         139.6471  138.5770  164.8461 C.ar    1  UNL1       -0.0234
     11 C         139.2670  138.5038  163.3970 C.ar    1  UNL1       -0.0072
     12 C         140.3315  138.5262  162.3404 C.ar    1  UNL1       -0.0070
     13 C         141.7760  138.6219  162.7329 C.ar    1  UNL1       -0.0072
     14 C         142.1561  138.6952  164.1821 C.ar    1  UNL1       -0.0234
     15 C         141.0916  138.6727  165.2387 C.ar    1  UNL1       -0.0086
     16 C         138.6209  140.0524  165.9732 C.3     1  UNL1        0.0044
     17 C         138.5827  138.5545  165.9028 C.3     1  UNL1        0.0189
     18 C         138.5444  137.0567  165.8324 C.3     1  UNL1        0.0044
     19 C         137.5182  138.5321  166.9594 C.3     1  UNL1        0.0044
     20 C         143.6007  138.7909  164.5747 C.3     1  UNL1        0.0189
     21 C         143.2403  138.4369  165.9871 C.3     1  UNL1        0.0044
     22 C         143.9610  139.1448  163.1623 C.3     1  UNL1        0.0044
     23 C         145.0452  138.8866  164.9672 C.3     1  UNL1        0.0044
     24 C         144.1253  143.5627  162.0486 C.3     1  UNL1        0.0721
     25 C         143.9135  144.7782  162.9016 C.3     1  UNL1        0.0173
     26 C         143.8401  144.6437  164.3938 C.3     1  UNL1        0.0014
     27 C         144.4658  143.4611  165.0720 C.3     1  UNL1        0.0007
     28 C         143.6833  142.1925  165.2407 C.3     1  UNL1        0.0087
     29 C         142.3683  142.2128  165.9621 C.3     1  UNL1        0.0446
     30 C         142.3029  141.8378  167.4129 C.ar    1  UNL1       -0.0183
     31 C         143.2986  142.4064  168.3800 C.ar    1  UNL1       -0.0017
     32 C         143.2333  142.0315  169.8310 C.ar    1  UNL1        0.0293
     33 C         142.1723  141.0880  170.3147 C.ar    1  UNL1        0.1401
     34 F         142.1069  140.7131  171.7657 F       1  UNL1       -0.2042
     35 C         141.1766  140.5195  169.3476 C.ar    1  UNL1        0.0293
     36 C         141.2419  140.8944  167.8967 C.ar    1  UNL1       -0.0017
     37 C         141.1186  142.6081  165.2324 C.ar    1  UNL1       -0.0183
     38 C         140.8480  142.0659  163.8603 C.ar    1  UNL1       -0.0017
     39 C         139.5984  142.4612  163.1307 C.ar    1  UNL1        0.0293
     40 C         138.6195  143.3987  163.7733 C.ar    1  UNL1        0.1401
     41 F         137.3699  143.7939  163.0438 F       1  UNL1       -0.2042
     42 C         138.8901  143.9408  165.1455 C.ar    1  UNL1        0.0293
     43 C         140.1397  143.5455  165.8751 C.ar    1  UNL1       -0.0017
@<TRIPOS>BOND
     1    16    17    1
     2    17    18    1
     3    17    19    1
     4    17    10    1
     5    10    11   ar
     6    11    12   ar
     7    12     9    1
     8     9     7    1
     9     7     6    1
    10     6     1    1
    11     1     2    1
    12     2     3    1
    13     3     4    1
    14     4    24    1
    15    24    25    1
    16    25    26    1
    17    26    27    1
    18    27    28    1
    19    28    29    1
    20    29    30    1
    21    30    31   ar
    22    31    32   ar
    23    32    33   ar
    24    33    34    1
    25    33    35   ar
    26    35    36   ar
    27    29    37    1
    28    37    38   ar
    29    38    39   ar
    30    39    40   ar
    31    40    41    1
    32    40    42   ar
    33    42    43   ar
    34     4     5    1
    35    12    13   ar
    36    13    14   ar
    37    14    20    1
    38    20    21    1
    39    20    22    1
    40    20    23    1
    41    14    15   ar
    42    15    10   ar
    43     5     1    1
    44    36    30   ar
    45    43    37   ar
    46     7     8    1
@<TRIPOS>MOLECULE
*****
 43 46 0 0 0
SMALL
GASTEIGER

@<TRIPOS>ATOM
      1 C         140.5849  139.2246  158.9639 C.3     1  UNL1        0.0331
      2 C         141.3545  138.2774  158.0918 C.3     1  UNL1        0.0201
      3 C         142.6329  137.9329  158.7968 C.3     1  UNL1        0.0722
      4 N         142.6535  138.6672  160.1046 N.3     1  UNL1       -0.2726
      5 C         141.3877  139.4655  160.2078 C.3     1  UNL1        0.0735
      6 C         139.2474  139.8254  158.6475 C.3     1  UNL1        0.0702
      7 N         138.1312  139.7386  159.6457 N.3     1  UNL1       -0.2937
      8 H         137.2972  139.4558  159.1311 H       1  UNL1        0.1236
      9 C         137.7530  140.9439  160.4546 C.3     1  UNL1        0.0956
     10 C         138.4812  142.3383  164.0981 C.ar    1  UNL1       -0.0234
     11 C         138.1885  142.3000  162.6275 C.ar    1  UNL1       -0.0072
     12 C         138.0457  140.9822  161.9253 C.ar    1  UNL1       -0.0070
     13 C         138.1954  139.7028  162.6937 C.ar    1  UNL1       -0.0072
     14 C         138.4881  139.7411  164.1644 C.ar    1  UNL1       -0.0234
     15 C         138.6310  141.0589  164.8666 C.ar    1  UNL1       -0.0086
     16 C         137.7287  144.2962  163.7812 C.3     1  UNL1        0.0044
     17 C         138.6241  143.6561  164.8003 C.3     1  UNL1        0.0189
     18 C         139.5194  143.0159  165.8194 C.3     1  UNL1        0.0044
     19 C         138.7669  144.9738  165.5025 C.3     1  UNL1        0.0044
     20 C         138.6379  138.4616  164.9329 C.3     1  UNL1        0.0189
     21 C         138.0495  139.1207  166.1450 C.3     1  UNL1        0.0044
     22 C         139.2263  137.8025  163.7208 C.3     1  UNL1        0.0044
     23 C         138.7877  137.1822  165.7014 C.3     1  UNL1        0.0044
     24 C         143.7476  138.6128  161.1292 C.3     1  UNL1        0.0721
     25 C         143.4226  138.7854  162.5833 C.3     1  UNL1        0.0173
     26 C         144.4717  139.2842  163.5323 C.3     1  UNL1        0.0014
     27 C         145.0890  140.6355  163.3252 C.3     1  UNL1        0.0007
     28 C         144.8474  141.7310  164.3210 C.3     1  UNL1        0.0087
     29 C         143.4452  142.0937  164.7116 C.3     1  UNL1        0.0446
     30 C         142.8316  141.4965  165.9431 C.ar    1  UNL1       -0.0183
     31 C         142.1091  140.1845  165.8603 C.ar    1  UNL1       -0.0017
     32 C         141.4954  139.5872  167.0918 C.ar    1  UNL1        0.0293
     33 C         141.6041  140.3019  168.4061 C.ar    1  UNL1        0.1401
     34 F         140.9904  139.7046  169.6377 F       1  UNL1       -0.2042
     35 C         142.3265  141.6139  168.4889 C.ar    1  UNL1        0.0293
     36 C         142.9403  142.2112  167.2574 C.ar    1  UNL1       -0.0017
     37 C         142.6569  143.0536  163.8706 C.ar    1  UNL1       -0.0183
     38 C         142.5518  144.4941  164.2755 C.ar    1  UNL1       -0.0017
     39 C         141.7635  145.4539  163.4346 C.ar    1  UNL1        0.0293
     40 C         141.0802  144.9732  162.1887 C.ar    1  UNL1        0.1401
     41 F         140.2919  145.9331  161.3477 F       1  UNL1       -0.2042
     42 C         141.1853  143.5327  161.7838 C.ar    1  UNL1        0.0293
     43 C         141.9736  142.5728  162.6248 C.ar    1  UNL1       -0.0017
@<TRIPOS>BOND
     1    16    17    1
     2    17    18    1
     3    17    19    1
     4    17    10    1
     5    10    11   ar
     6    11    12   ar
     7    12     9    1
     8     9     7    1
     9     7     6    1
    10     6     1    1
    11     1     2    1
    12     2     3    1
    13     3     4    1
    14     4    24    1
    15    24    25    1
    16    25    26    1
    17    26    27    1
    18    27    28    1
    19    28    29    1
    20    29    30    1
    21    30    31   ar
    22    31    32   ar
    23    32    33   ar
    24    33    34    1
    25    33    35   ar
    26    35    36   ar
    27    29    37    1
    28    37    38   ar
    29    38    39   ar
    30    39    40   ar
    31    40    41    1
    32    40    42   ar
    33    42    43   ar
    34     4     5    1
    35    12    13   ar
    36    13    14   ar
    37    14    20    1
    38    20    21    1
    39    20    22    1
    40    20    23    1
    41    14    15   ar
    42    15    10   ar
    43     5     1    1
    44    36    30   ar
    45    43    37   ar
    46     7     8    1
@<TRIPOS>MOLECULE
*****
 43 46 0 0 0
SMALL
GASTEIGER

@<TRIPOS>ATOM
      1 C         140.5402  139.1687  158.7997 C.3     1  UNL1        0.0331
      2 C         141.3225  138.2713  157.8871 C.3     1  UNL1        0.0201
      3 C         142.6209  137.9419  158.5620 C.3     1  UNL1        0.0722
      4 N         142.6411  138.6356  159.8918 N.3     1  UNL1       -0.2726
      5 C         141.3552  139.3938  160.0387 C.3     1  UNL1        0.0735
      6 C         139.1815  139.7405  158.5220 C.3     1  UNL1        0.0702
      7 N         138.1248  139.7139  159.5862 N.3     1  UNL1       -0.2937
      8 H         137.2555  139.4354  159.1311 H       1  UNL1        0.1236
      9 C         137.8230  140.9537  160.3746 C.3     1  UNL1        0.0956
     10 C         138.4864  142.3364  164.0350 C.ar    1  UNL1       -0.0234
     11 C         138.2206  142.3028  162.5592 C.ar    1  UNL1       -0.0072
     12 C         138.0888  140.9873  161.8506 C.ar    1  UNL1       -0.0070
     13 C         138.2228  139.7054  162.6178 C.ar    1  UNL1       -0.0072
     14 C         138.4886  139.7390  164.0937 C.ar    1  UNL1       -0.0234
     15 C         138.6204  141.0545  164.8023 C.ar    1  UNL1       -0.0086
     16 C         137.7382  144.2951  163.7131 C.3     1  UNL1        0.0044
     17 C         138.6181  143.6519  164.7436 C.3     1  UNL1        0.0189
     18 C         139.4981  143.0086  165.7741 C.3     1  UNL1        0.0044
     19 C         138.7499  144.9674  165.4522 C.3     1  UNL1        0.0044
     20 C         138.6226  138.4570  164.8610 C.3     1  UNL1        0.0189
     21 C         138.0885  139.1353  166.0876 C.3     1  UNL1        0.0044
     22 C         139.1568  137.7787  163.6344 C.3     1  UNL1        0.0044
     23 C         138.7567  137.1751  165.6282 C.3     1  UNL1        0.0044
     24 C         143.7521  138.5808  160.8981 C.3     1  UNL1        0.0721
     25 C         143.4603  138.8131  162.3509 C.3     1  UNL1        0.0173
     26 C         144.5368  139.3294  163.2589 C.3     1  UNL1        0.0014
     27 C         145.0310  140.7380  163.1110 C.3     1  UNL1        0.0007
     28 C         144.8122  141.7294  164.2152 C.3     1  UNL1        0.0087
     29 C         143.4177  142.1045  164.6210 C.3     1  UNL1        0.0446
     30 C         142.6250  143.0630  163.7828 C.ar    1  UNL1       -0.0183
     31 C         142.5044  144.4995  164.1975 C.ar    1  UNL1       -0.0017
     32 C         141.7116  145.4582  163.3593 C.ar    1  UNL1        0.0293
     33 C         141.0395  144.9803  162.1064 C.ar    1  UNL1        0.1401
     34 F         140.2467  145.9390  161.2681 F       1  UNL1       -0.2042
     35 C         141.1601  143.5438  161.6917 C.ar    1  UNL1        0.0293
     36 C         141.9528  142.5852  162.5298 C.ar    1  UNL1       -0.0017
     37 C         142.8159  141.5209  165.8650 C.ar    1  UNL1       -0.0183
     38 C         142.0882  140.2107  165.8027 C.ar    1  UNL1       -0.0017
     39 C         141.4865  139.6272  167.0467 C.ar    1  UNL1        0.0293
     40 C         141.6125  140.3539  168.3529 C.ar    1  UNL1        0.1401
     41 F         141.0109  139.7703  169.5969 F       1  UNL1       -0.2042
     42 C         142.3403  141.6640  168.4151 C.ar    1  UNL1        0.0293
     43 C         142.9420  142.2476  167.1711 C.ar    1  UNL1       -0.0017
@<TRIPOS>BOND
     1    16    17    1
     2    17    18    1
     3    17    19    1
     4    17    10    1
     5    10    11   ar
     6    11    12   ar
     7    12     9    1
     8     9     7    1
     9     7     6    1
    10     6     1    1
    11     1     2    1
    12     2     3    1
    13     3     4    1
    14     4    24    1
    15    24    25    1
    16    25    26    1
    17    26    27    1
    18    27    28    1
    19    28    29    1
    20    29    30    1
    21    30    31   ar
    22    31    32   ar
    23    32    33   ar
    24    33    34    1
    25    33    35   ar
    26    35    36   ar
    27    29    37    1
    28    37    38   ar
    29    38    39   ar
    30    39    40   ar
    31    40    41    1
    32    40    42   ar
    33    42    43   ar
    34     4     5    1
    35    12    13   ar
    36    13    14   ar
    37    14    20    1
    38    20    21    1
    39    20    22    1
    40    20    23    1
    41    14    15   ar
    42    15    10   ar
    43     5     1    1
    44    36    30   ar
    45    43    37   ar
    46     7     8    1
@<TRIPOS>MOLECULE
*****
 43 46 0 0 0
SMALL
GASTEIGER

@<TRIPOS>ATOM
      1 C         141.1149  141.8331  159.3597 C.3     1  UNL1        0.0331
      2 C         140.9231  143.3150  159.4905 C.3     1  UNL1        0.0201
      3 C         142.1806  143.8962  160.0659 C.3     1  UNL1        0.0722
      4 N         143.1496  142.7734  160.2906 N.3     1  UNL1       -0.2726
      5 C         142.4909  141.4984  159.8541 C.3     1  UNL1        0.0735
      6 C         140.1075  140.8573  158.8278 C.3     1  UNL1        0.0702
      7 N         138.6433  141.0935  159.0524 N.3     1  UNL1       -0.2937
      8 H         138.5363  142.0815  159.2822 H       1  UNL1        0.1236
      9 C         137.9128  140.3212  160.1107 C.3     1  UNL1        0.0956
     10 C         138.7943  142.1976  163.4947 C.ar    1  UNL1       -0.0234
     11 C         138.4913  141.9554  162.0458 C.ar    1  UNL1       -0.0072
     12 C         138.2158  140.5634  161.5597 C.ar    1  UNL1       -0.0070
     13 C         138.2433  139.4135  162.5225 C.ar    1  UNL1       -0.0072
     14 C         138.5464  139.6557  163.9714 C.ar    1  UNL1       -0.0234
     15 C         138.8218  141.0478  164.4576 C.ar    1  UNL1       -0.0086
     16 C         137.7422  143.6087  164.6787 C.3     1  UNL1        0.0044
     17 C         139.0698  143.5897  163.9808 C.3     1  UNL1        0.0189
     18 C         140.3974  143.5706  163.2830 C.3     1  UNL1        0.0044
     19 C         139.3453  144.9817  164.4670 C.3     1  UNL1        0.0044
     20 C         138.5739  138.5059  164.9343 C.3     1  UNL1        0.0189
     21 C         138.5661  139.4687  166.0845 C.3     1  UNL1        0.0044
     22 C         138.5817  137.5430  163.7842 C.3     1  UNL1        0.0044
     23 C         138.6014  137.3560  165.8972 C.3     1  UNL1        0.0044
     24 C         144.5341  142.9028  160.8530 C.3     1  UNL1        0.0721
     25 C         144.7350  142.9998  162.3362 C.3     1  UNL1        0.0173
     26 C         144.0448  144.0782  163.1177 C.3     1  UNL1        0.0014
     27 C         143.9977  144.0061  164.6152 C.3     1  UNL1        0.0007
     28 C         144.2645  142.7049  165.3122 C.3     1  UNL1        0.0087
     29 C         143.1201  141.8666  165.7995 C.3     1  UNL1        0.0446
     30 C         142.7367  140.6187  165.0609 C.ar    1  UNL1       -0.0183
     31 C         142.6382  139.3137  165.7939 C.ar    1  UNL1       -0.0017
     32 C         142.2548  138.0657  165.0552 C.ar    1  UNL1        0.0293
     33 C         141.9700  138.1227  163.5837 C.ar    1  UNL1        0.1401
     34 F         141.5866  136.8747  162.8449 F       1  UNL1       -0.2042
     35 C         142.0685  139.4278  162.8507 C.ar    1  UNL1        0.0293
     36 C         142.4519  140.6757  163.5893 C.ar    1  UNL1       -0.0017
     37 C         142.3590  142.2763  167.0256 C.ar    1  UNL1       -0.0183
     38 C         143.0539  142.3398  168.3534 C.ar    1  UNL1       -0.0017
     39 C         142.2928  142.7495  169.5793 C.ar    1  UNL1        0.0293
     40 C         140.8369  143.0957  169.4774 C.ar    1  UNL1        0.1401
     41 F         140.0758  143.5054  170.7033 F       1  UNL1       -0.2042
     42 C         140.1420  143.0322  168.1496 C.ar    1  UNL1        0.0293
     43 C         140.9031  142.6225  166.9236 C.ar    1  UNL1       -0.0017
@<TRIPOS>BOND
     1    16    17    1
     2    17    18    1
     3    17    19    1
     4    17    10    1
     5    10    11   ar
     6    11    12   ar
     7    12     9    1
     8     9     7    1
     9     7     6    1
    10     6     1    1
    11     1     2    1
    12     2     3    1
    13     3     4    1
    14     4    24    1
    15    24    25    1
    16    25    26    1
    17    26    27    1
    18    27    28    1
    19    28    29    1
    20    29    30    1
    21    30    31   ar
    22    31    32   ar
    23    32    33   ar
    24    33    34    1
    25    33    35   ar
    26    35    36   ar
    27    29    37    1
    28    37    38   ar
    29    38    39   ar
    30    39    40   ar
    31    40    41    1
    32    40    42   ar
    33    42    43   ar
    34     4     5    1
    35    12    13   ar
    36    13    14   ar
    37    14    20    1
    38    20    21    1
    39    20    22    1
    40    20    23    1
    41    14    15   ar
    42    15    10   ar
    43     5     1    1
    44    36    30   ar
    45    43    37   ar
    46     7     8    1
@<TRIPOS>MOLECULE
*****
 43 46 0 0 0
SMALL
GASTEIGER

@<TRIPOS>ATOM
      1 C         140.2729  139.8817  159.9168 C.3     1  UNL1        0.0331
      2 C         138.8665  139.3640  159.8533 C.3     1  UNL1        0.0201
      3 C         137.9572  140.4237  160.4011 C.3     1  UNL1        0.0722
      4 N         138.8016  141.5964  160.8033 N.3     1  UNL1       -0.2726
      5 C         140.2327  141.2614  160.5039 C.3     1  UNL1        0.0735
      6 C         141.5034  139.1485  159.4714 C.3     1  UNL1        0.0702
      7 N         142.8384  139.8312  159.5100 N.3     1  UNL1       -0.2937
      8 H         143.2658  139.6940  158.5941 H       1  UNL1        0.1236
      9 C         143.8600  139.4238  160.5300 C.3     1  UNL1        0.0956
     10 C         143.8274  139.6020  164.4945 C.ar    1  UNL1       -0.0234
     11 C         143.8979  139.0514  163.1010 C.ar    1  UNL1       -0.0072
     12 C         143.7895  139.9744  161.9235 C.ar    1  UNL1       -0.0070
     13 C         143.6105  141.4479  162.1395 C.ar    1  UNL1       -0.0072
     14 C         143.5400  141.9984  163.5330 C.ar    1  UNL1       -0.0234
     15 C         143.6484  141.0755  164.7105 C.ar    1  UNL1       -0.0086
     16 C         145.4239  138.6234  165.4913 C.3     1  UNL1        0.0044
     17 C         143.9358  138.6790  165.6719 C.3     1  UNL1        0.0189
     18 C         142.4478  138.7347  165.8526 C.3     1  UNL1        0.0044
     19 C         144.0443  137.7561  166.8494 C.3     1  UNL1        0.0044
     20 C         143.3610  143.4720  163.7491 C.3     1  UNL1        0.0189
     21 C         144.3077  143.4166  164.9112 C.3     1  UNL1        0.0044
     22 C         142.4142  143.5274  162.5870 C.3     1  UNL1        0.0044
     23 C         143.1820  144.9455  163.9652 C.3     1  UNL1        0.0044
     24 C         138.3025  142.8789  161.4000 C.3     1  UNL1        0.0721
     25 C         137.7861  142.9000  162.8081 C.3     1  UNL1        0.0173
     26 C         137.8213  144.1729  163.6008 C.3     1  UNL1        0.0014
     27 C         138.4762  144.1983  164.9501 C.3     1  UNL1        0.0007
     28 C         139.8852  143.7086  165.1092 C.3     1  UNL1        0.0087
     29 C         140.1671  142.4926  165.9411 C.3     1  UNL1        0.0446
     30 C         140.8625  142.6329  167.2626 C.ar    1  UNL1       -0.0183
     31 C         142.2559  142.1052  167.4365 C.ar    1  UNL1       -0.0017
     32 C         142.9515  142.2454  168.7581 C.ar    1  UNL1        0.0293
     33 C         142.2537  142.9132  169.9057 C.ar    1  UNL1        0.1401
     34 F         142.9493  143.0535  171.2274 F       1  UNL1       -0.2042
     35 C         140.8603  143.4409  169.7318 C.ar    1  UNL1        0.0293
     36 C         140.1648  143.3007  168.4103 C.ar    1  UNL1       -0.0017
     37 C         139.7534  141.1365  165.4513 C.ar    1  UNL1       -0.0183
     38 C         138.9824  140.2170  166.3513 C.ar    1  UNL1       -0.0017
     39 C         138.5688  138.8609  165.8616 C.ar    1  UNL1        0.0293
     40 C         138.9262  138.4243  164.4717 C.ar    1  UNL1        0.1401
     41 F         138.5126  137.0682  163.9819 F       1  UNL1       -0.2042
     42 C         139.6972  139.3438  163.5717 C.ar    1  UNL1        0.0293
     43 C         140.1109  140.6999  164.0614 C.ar    1  UNL1       -0.0017
@<TRIPOS>BOND
     1    16    17    1
     2    17    18    1
     3    17    19    1
     4    17    10    1
     5    10    11   ar
     6    11    12   ar
     7    12     9    1
     8     9     7    1
     9     7     6    1
    10     6     1    1
    11     1     2    1
    12     2     3    1
    13     3     4    1
    14     4    24    1
    15    24    25    1
    16    25    26    1
    17    26    27    1
    18    27    28    1
    19    28    29    1
    20    29    30    1
    21    30    31   ar
    22    31    32   ar
    23    32    33   ar
    24    33    34    1
    25    33    35   ar
    26    35    36   ar
    27    29    37    1
    28    37    38   ar
    29    38    39   ar
    30    39    40   ar
    31    40    41    1
    32    40    42   ar
    33    42    43   ar
    34     4     5    1
    35    12    13   ar
    36    13    14   ar
    37    14    20    1
    38    20    21    1
    39    20    22    1
    40    20    23    1
    41    14    15   ar
    42    15    10   ar
    43     5     1    1
    44    36    30   ar
    45    43    37   ar
    46     7     8    1
@<TRIPOS>MOLECULE
*****
 43 46 0 0 0
SMALL
GASTEIGER

@<TRIPOS>ATOM
      1 C         137.7812  142.3248  163.3653 C.3     1  UNL1        0.0331
      2 C         138.0118  142.6715  161.9243 C.3     1  UNL1        0.0201
      3 C         138.0279  141.3947  161.1371 C.3     1  UNL1        0.0722
      4 N         137.8072  140.2589  162.0917 N.3     1  UNL1       -0.2726
      5 C         137.6548  140.8337  163.4688 C.3     1  UNL1        0.0735
      6 C         137.6926  143.2982  164.5031 C.3     1  UNL1        0.0702
      7 N         138.3975  144.6194  164.4163 N.3     1  UNL1       -0.2937
      8 H         138.3058  144.9394  163.4522 H       1  UNL1        0.1236
      9 C         139.8522  144.7180  164.7687 C.3     1  UNL1        0.0956
     10 C         143.2024  143.3000  163.1827 C.ar    1  UNL1       -0.0234
     11 C         142.1589  143.6690  164.1950 C.ar    1  UNL1       -0.0072
     12 C         140.8958  144.3489  163.7563 C.ar    1  UNL1       -0.0070
     13 C         140.6762  144.6596  162.3054 C.ar    1  UNL1       -0.0072
     14 C         141.7198  144.2906  161.2932 C.ar    1  UNL1       -0.0234
     15 C         142.9829  143.6107  161.7318 C.ar    1  UNL1       -0.0086
     16 C         144.9668  142.6393  162.2077 C.3     1  UNL1        0.0044
     17 C         144.4655  142.6201  163.6214 C.3     1  UNL1        0.0189
     18 C         143.9643  142.6010  165.0350 C.3     1  UNL1        0.0044
     19 C         145.7286  141.9403  164.0600 C.3     1  UNL1        0.0044
     20 C         141.5003  144.6013  159.8422 C.3     1  UNL1        0.0189
     21 C         140.4281  145.5820  160.2144 C.3     1  UNL1        0.0044
     22 C         142.5725  143.6206  159.4700 C.3     1  UNL1        0.0044
     23 C         141.2808  144.9120  158.3912 C.3     1  UNL1        0.0044
     24 C         137.7491  138.8037  161.7324 C.3     1  UNL1        0.0721
     25 C         138.7663  137.8525  162.2895 C.3     1  UNL1        0.0173
     26 C         138.5990  137.3024  163.6749 C.3     1  UNL1        0.0014
     27 C         139.7041  137.4489  164.6786 C.3     1  UNL1        0.0007
     28 C         139.7774  138.6749  165.5398 C.3     1  UNL1        0.0087
     29 C         140.9404  139.6135  165.4110 C.3     1  UNL1        0.0446
     30 C         141.2589  140.5698  166.5218 C.ar    1  UNL1       -0.0183
     31 C         140.3683  141.7503  166.7735 C.ar    1  UNL1       -0.0017
     32 C         140.6867  142.7067  167.8843 C.ar    1  UNL1        0.0293
     33 C         141.8957  142.4826  168.7433 C.ar    1  UNL1        0.1401
     34 F         142.2142  143.4391  169.8542 F       1  UNL1       -0.2042
     35 C         142.7863  141.3021  168.4916 C.ar    1  UNL1        0.0293
     36 C         142.4679  140.3457  167.3808 C.ar    1  UNL1       -0.0017
     37 C         141.7849  139.5956  164.1713 C.ar    1  UNL1       -0.0183
     38 C         143.1318  138.9357  164.1908 C.ar    1  UNL1       -0.0017
     39 C         143.9762  138.9178  162.9512 C.ar    1  UNL1        0.0293
     40 C         143.4737  139.5599  161.6921 C.ar    1  UNL1        0.1401
     41 F         144.3181  139.5420  160.4525 F       1  UNL1       -0.2042
     42 C         142.1268  140.2198  161.6726 C.ar    1  UNL1        0.0293
     43 C         141.2823  140.2377  162.9123 C.ar    1  UNL1       -0.0017
@<TRIPOS>BOND
     1    16    17    1
     2    17    18    1
     3    17    19    1
     4    17    10    1
     5    10    11   ar
     6    11    12   ar
     7    12     9    1
     8     9     7    1
     9     7     6    1
    10     6     1    1
    11     1     2    1
    12     2     3    1
    13     3     4    1
    14     4    24    1
    15    24    25    1
    16    25    26    1
    17    26    27    1
    18    27    28    1
    19    28    29    1
    20    29    30    1
    21    30    31   ar
    22    31    32   ar
    23    32    33   ar
    24    33    34    1
    25    33    35   ar
    26    35    36   ar
    27    29    37    1
    28    37    38   ar
    29    38    39   ar
    30    39    40   ar
    31    40    41    1
    32    40    42   ar
    33    42    43   ar
    34     4     5    1
    35    12    13   ar
    36    13    14   ar
    37    14    20    1
    38    20    21    1
    39    20    22    1
    40    20    23    1
    41    14    15   ar
    42    15    10   ar
    43     5     1    1
    44    36    30   ar
    45    43    37   ar
    46     7     8    1
@<TRIPOS>MOLECULE
*****
 43 46 0 0 0
SMALL
GASTEIGER

@<TRIPOS>ATOM
      1 C         142.1398  141.9348  159.6923 C.3     1  UNL1        0.0331
      2 C         143.4962  141.5720  159.1644 C.3     1  UNL1        0.0201
      3 C         144.5237  142.2525  160.0194 C.3     1  UNL1        0.0722
      4 N         143.8025  143.0359  161.0758 N.3     1  UNL1       -0.2726
      5 C         142.3292  142.8395  160.8737 C.3     1  UNL1        0.0735
      6 C         140.8251  141.4738  159.1366 C.3     1  UNL1        0.0702
      7 N         139.7500  140.9848  160.0612 N.3     1  UNL1       -0.2937
      8 H         139.7297  141.6259  160.8543 H       1  UNL1        0.1236
      9 C         139.8216  139.5976  160.6275 C.3     1  UNL1        0.0956
     10 C         142.1834  139.1797  163.7894 C.ar    1  UNL1       -0.0234
     11 C         141.7340  139.3895  162.3738 C.ar    1  UNL1       -0.0072
     12 C         140.2709  139.3878  162.0432 C.ar    1  UNL1       -0.0070
     13 C         139.2572  139.1761  163.1283 C.ar    1  UNL1       -0.0072
     14 C         139.7065  138.9663  164.5439 C.ar    1  UNL1       -0.0234
     15 C         141.1697  138.9680  164.8744 C.ar    1  UNL1       -0.0086
     16 C         143.3337  138.7049  165.5073 C.3     1  UNL1        0.0044
     17 C         143.6465  139.1814  164.1199 C.3     1  UNL1        0.0189
     18 C         143.9594  139.6579  162.7324 C.3     1  UNL1        0.0044
     19 C         145.1097  139.1832  164.4504 C.3     1  UNL1        0.0044
     20 C         138.6927  138.7547  165.6291 C.3     1  UNL1        0.0189
     21 C         138.8691  137.2703  165.5045 C.3     1  UNL1        0.0044
     22 C         138.5164  140.2390  165.7538 C.3     1  UNL1        0.0044
     23 C         137.6790  138.5431  166.7142 C.3     1  UNL1        0.0044
     24 C         144.4421  143.8693  162.1464 C.3     1  UNL1        0.0721
     25 C         143.5924  144.7222  163.0410 C.3     1  UNL1        0.0173
     26 C         143.9261  144.8451  164.4982 C.3     1  UNL1        0.0014
     27 C         144.4119  143.6478  165.2601 C.3     1  UNL1        0.0007
     28 C         143.5842  142.3974  165.2995 C.3     1  UNL1        0.0087
     29 C         142.2877  142.3797  166.0539 C.3     1  UNL1        0.0446
     30 C         142.2500  141.8829  167.4686 C.ar    1  UNL1       -0.0183
     31 C         141.2604  140.8284  167.8670 C.ar    1  UNL1       -0.0017
     32 C         141.2226  140.3315  169.2818 C.ar    1  UNL1        0.0293
     33 C         142.1745  140.8891  170.2982 C.ar    1  UNL1        0.1401
     34 F         142.1367  140.3922  171.7131 F       1  UNL1       -0.2042
     35 C         143.1641  141.9436  169.8998 C.ar    1  UNL1        0.0293
     36 C         143.2019  142.4405  168.4850 C.ar    1  UNL1       -0.0017
     37 C         141.0291  142.8589  165.3933 C.ar    1  UNL1       -0.0183
     38 C         140.0250  143.6505  166.1777 C.ar    1  UNL1       -0.0017
     39 C         138.7664  144.1296  165.5171 C.ar    1  UNL1        0.0293
     40 C         138.5119  143.8172  164.0723 C.ar    1  UNL1        0.1401
     41 F         137.2533  144.2963  163.4117 F       1  UNL1       -0.2042
     42 C         139.5160  143.0256  163.2879 C.ar    1  UNL1        0.0293
     43 C         140.7746  142.5464  163.9485 C.ar    1  UNL1       -0.0017
@<TRIPOS>BOND
     1    16    17    1
     2    17    18    1
     3    17    19    1
     4    17    10    1
     5    10    11   ar
     6    11    12   ar
     7    12     9    1
     8     9     7    1
     9     7     6    1
    10     6     1    1
    11     1     2    1
    12     2     3    1
    13     3     4    1
    14     4    24    1
    15    24    25    1
    16    25    26    1
    17    26    27    1
    18    27    28    1
    19    28    29    1
    20    29    30    1
    21    30    31   ar
    22    31    32   ar
    23    32    33   ar
    24    33    34    1
    25    33    35   ar
    26    35    36   ar
    27    29    37    1
    28    37    38   ar
    29    38    39   ar
    30    39    40   ar
    31    40    41    1
    32    40    42   ar
    33    42    43   ar
    34     4     5    1
    35    12    13   ar
    36    13    14   ar
    37    14    20    1
    38    20    21    1
    39    20    22    1
    40    20    23    1
    41    14    15   ar
    42    15    10   ar
    43     5     1    1
    44    36    30   ar
    45    43    37   ar
    46     7     8    1
@<TRIPOS>MOLECULE
*****
 43 46 0 0 0
SMALL
GASTEIGER

@<TRIPOS>ATOM
      1 C         137.8012  142.2760  163.3971 C.3     1  UNL1        0.0331
      2 C         137.9864  142.6538  161.9573 C.3     1  UNL1        0.0201
      3 C         137.9843  141.3938  161.1435 C.3     1  UNL1        0.0722
      4 N         137.7977  140.2373  162.0802 N.3     1  UNL1       -0.2726
      5 C         137.6845  140.7825  163.4730 C.3     1  UNL1        0.0735
      6 C         137.7428  143.2251  164.5572 C.3     1  UNL1        0.0702
      7 N         138.3218  144.6029  164.4289 N.3     1  UNL1       -0.2937
      8 H         138.1744  144.8954  163.4630 H       1  UNL1        0.1236
      9 C         139.7707  144.8392  164.7367 C.3     1  UNL1        0.0956
     10 C         141.6721  144.3500  161.2877 C.ar    1  UNL1       -0.0234
     11 C         140.6205  144.7405  162.2835 C.ar    1  UNL1       -0.0072
     12 C         140.8224  144.4486  163.7409 C.ar    1  UNL1       -0.0070
     13 C         142.0758  143.7661  164.2025 C.ar    1  UNL1       -0.0072
     14 C         143.1273  143.3755  163.2067 C.ar    1  UNL1       -0.0234
     15 C         142.9255  143.6675  161.7493 C.ar    1  UNL1       -0.0086
     16 C         142.5593  143.6700  159.4848 C.3     1  UNL1        0.0044
     17 C         141.4702  144.6419  159.8303 C.3     1  UNL1        0.0189
     18 C         140.3812  145.6138  160.1758 C.3     1  UNL1        0.0044
     19 C         141.2684  144.9338  158.3729 C.3     1  UNL1        0.0044
     20 C         144.3808  142.6930  163.6683 C.3     1  UNL1        0.0189
     21 C         144.9166  142.7296  162.2678 C.3     1  UNL1        0.0044
     22 C         143.8450  142.6563  165.0689 C.3     1  UNL1        0.0044
     23 C         145.6342  142.0105  164.1299 C.3     1  UNL1        0.0044
     24 C         137.7352  138.7896  161.6923 C.3     1  UNL1        0.0721
     25 C         138.7512  137.8251  162.2282 C.3     1  UNL1        0.0173
     26 C         138.6190  137.2957  163.6255 C.3     1  UNL1        0.0014
     27 C         139.7668  137.4136  164.5839 C.3     1  UNL1        0.0007
     28 C         139.8508  138.5885  165.5127 C.3     1  UNL1        0.0087
     29 C         140.9686  139.5786  165.3704 C.3     1  UNL1        0.0446
     30 C         141.7891  139.6080  164.1151 C.ar    1  UNL1       -0.0183
     31 C         143.1375  138.9513  164.0849 C.ar    1  UNL1       -0.0017
     32 C         143.9580  138.9807  162.8296 C.ar    1  UNL1        0.0293
     33 C         143.4303  139.6666  161.6045 C.ar    1  UNL1        0.1401
     34 F         144.2508  139.6960  160.3491 F       1  UNL1       -0.2042
     35 C         142.0819  140.3233  161.6347 C.ar    1  UNL1        0.0293
     36 C         141.2614  140.2939  162.8900 C.ar    1  UNL1       -0.0017
     37 C         141.2659  140.5392  166.4835 C.ar    1  UNL1       -0.0183
     38 C         140.4026  141.7500  166.6798 C.ar    1  UNL1       -0.0017
     39 C         140.6999  142.7106  167.7929 C.ar    1  UNL1        0.0293
     40 C         141.8606  142.4604  168.7096 C.ar    1  UNL1        0.1401
     41 F         142.1579  143.4209  169.8226 F       1  UNL1       -0.2042
     42 C         142.7239  141.2496  168.5132 C.ar    1  UNL1        0.0293
     43 C         142.4266  140.2889  167.4001 C.ar    1  UNL1       -0.0017
@<TRIPOS>BOND
     1    16    17    1
     2    17    18    1
     3    17    19    1
     4    17    10    1
     5    10    11   ar
     6    11    12   ar
     7    12     9    1
     8     9     7    1
     9     7     6    1
    10     6     1    1
    11     1     2    1
    12     2     3    1
    13     3     4    1
    14     4    24    1
    15    24    25    1
    16    25    26    1
    17    26    27    1
    18    27    28    1
    19    28    29    1
    20    29    30    1
    21    30    31   ar
    22    31    32   ar
    23    32    33   ar
    24    33    34    1
    25    33    35   ar
    26    35    36   ar
    27    29    37    1
    28    37    38   ar
    29    38    39   ar
    30    39    40   ar
    31    40    41    1
    32    40    42   ar
    33    42    43   ar
    34     4     5    1
    35    12    13   ar
    36    13    14   ar
    37    14    20    1
    38    20    21    1
    39    20    22    1
    40    20    23    1
    41    14    15   ar
    42    15    10   ar
    43     5     1    1
    44    36    30   ar
    45    43    37   ar
    46     7     8    1
