@<TRIPOS>MOLECULE
*****
 28 31 0 0 0
SMALL
GASTEIGER

@<TRIPOS>ATOM
      1 C         140.4138  140.2010  167.5639 C.ar    1  UNL1        0.1404
      2 C         140.1256  140.1952  169.0359 C.ar    1  UNL1        0.0371
      3 C         141.1215  139.6099  169.9927 C.ar    1  UNL1        0.0076
      4 C         142.4056  139.0305  169.4775 C.ar    1  UNL1        0.0536
      5 C         142.6938  139.0363  168.0055 C.ar    1  UNL1        0.0091
      6 C         141.6978  139.6216  167.0487 C.ar    1  UNL1        0.0551
      7 C         141.9859  139.6275  165.5766 C.ar    1  UNL1        0.1261
      8 C         142.0112  138.4266  164.6783 C.ar    1  UNL1        0.1177
      9 N         142.3402  138.8923  163.2909 N.ar    1  UNL1       -0.2282
     10 C         142.4686  138.0220  162.0759 C.3     1  UNL1        0.1556
     11 N         142.5183  140.3812  163.3317 N.ar    1  UNL1       -0.0637
     12 N         142.2994  140.8355  164.7444 N.ar    1  UNL1       -0.1286
     13 C         143.4016  138.4451  170.4344 C.2     1  UNL1        0.2458
     14 O         144.1139  139.3327  171.4116 O.2     1  UNL1       -0.2701
     15 N         143.6852  136.9724  170.4140 N.am    1  UNL1       -0.3025
     16 H         143.2176  136.3899  169.7727 H       1  UNL1        0.1497
     17 C         144.6811  136.3870  171.3709 C.3     1  UNL1        0.0720
     18 C         146.0754  136.3296  171.9209 C.3     1  UNL1        0.0213
     19 C         145.0118  135.4307  172.4782 C.3     1  UNL1        0.0213
     20 O         139.4178  140.7864  166.6070 O.3     1  UNL1       -0.4731
     21 C         137.8202  138.7395  166.5185 C.3     1  UNL1        0.0540
     22 C         138.5032  139.8849  165.8319 C.3     1  UNL1        0.2056
     23 C         138.2715  140.1289  164.3701 C.ar    1  UNL1        0.0986
     24 C         138.5186  139.0312  163.3781 C.ar    1  UNL1        0.0183
     25 C         138.2870  139.2751  161.9163 C.ar    1  UNL1        0.0029
     26 C         137.8083  140.6168  161.4465 C.ar    1  UNL1        0.0207
     27 C         137.5612  141.7145  162.4385 C.ar    1  UNL1        0.0986
     28 N         137.7928  141.4706  163.9003 N.ar    1  UNL1       -0.2446
@<TRIPOS>BOND
     1    22    21    1
     2    22    20    1
     3    20     1    1
     4     1     2   ar
     5     2     3   ar
     6     3     4   ar
     7     4    13    1
     8    13    14    2
     9    13    15   am
    10    15    17    1
    11    17    18    1
    12    18    19    1
    13     4     5   ar
    14     5     6   ar
    15     6     7    1
    16     7     8   ar
    17     8     9   ar
    18     9    10    1
    19     9    11   ar
    20    11    12   ar
    21    22    23    1
    22    23    24   ar
    23    24    25   ar
    24    25    26   ar
    25    26    27   ar
    26    27    28   ar
    27     6     1   ar
    28    12     7   ar
    29    28    23   ar
    30    19    17    1
    31    15    16    1
@<TRIPOS>MOLECULE
*****
 28 31 0 0 0
SMALL
GASTEIGER

@<TRIPOS>ATOM
      1 C         141.0033  140.8362  166.2134 C.ar    1  UNL1        0.1404
      2 C         141.3418  141.4431  167.5427 C.ar    1  UNL1        0.0371
      3 C         140.5682  141.0490  168.7659 C.ar    1  UNL1        0.0076
      4 C         139.4562  140.0479  168.6598 C.ar    1  UNL1        0.0536
      5 C         139.1177  139.4409  167.3306 C.ar    1  UNL1        0.0091
      6 C         139.8913  139.8351  166.1074 C.ar    1  UNL1        0.0551
      7 C         139.5528  139.2281  164.7780 C.ar    1  UNL1        0.1261
      8 C         138.5715  139.7741  163.7836 C.ar    1  UNL1        0.1177
      9 N         138.5485  138.8520  162.6008 N.ar    1  UNL1       -0.2282
     10 C         137.7062  139.0169  161.3705 C.3     1  UNL1        0.1556
     11 N         139.5156  137.7360  162.8641 N.ar    1  UNL1       -0.0637
     12 N         140.1362  137.9684  164.2097 N.ar    1  UNL1       -0.1286
     13 C         138.6827  139.6538  169.8831 C.2     1  UNL1        0.2458
     14 O         139.3121  139.7738  171.2394 O.2     1  UNL1       -0.2701
     15 N         137.2799  139.1397  169.7501 N.am    1  UNL1       -0.3025
     16 H         136.8668  139.0609  168.8599 H       1  UNL1        0.1497
     17 C         136.5063  138.7456  170.9734 C.3     1  UNL1        0.0720
     18 C         136.2445  137.7775  172.0888 C.3     1  UNL1        0.0213
     19 C         135.4284  139.0310  171.9767 C.3     1  UNL1        0.0213
     20 O         141.7768  141.2303  164.9901 O.3     1  UNL1       -0.4731
     21 C         142.8750  143.4732  164.2738 C.3     1  UNL1        0.0540
     22 C         141.6525  142.6200  164.4396 C.3     1  UNL1        0.2056
     23 C         140.3055  143.1566  164.0549 C.ar    1  UNL1        0.0986
     24 C         139.4611  143.8637  165.0732 C.ar    1  UNL1        0.0183
     25 C         138.1143  144.4003  164.6885 C.ar    1  UNL1        0.0029
     26 C         137.6118  144.2298  163.2855 C.ar    1  UNL1        0.0207
     27 C         138.4562  143.5227  162.2672 C.ar    1  UNL1        0.0986
     28 N         139.8031  142.9861  162.6519 N.ar    1  UNL1       -0.2446
@<TRIPOS>BOND
     1    22    21    1
     2    22    20    1
     3    20     1    1
     4     1     2   ar
     5     2     3   ar
     6     3     4   ar
     7     4    13    1
     8    13    14    2
     9    13    15   am
    10    15    17    1
    11    17    18    1
    12    18    19    1
    13     4     5   ar
    14     5     6   ar
    15     6     7    1
    16     7     8   ar
    17     8     9   ar
    18     9    10    1
    19     9    11   ar
    20    11    12   ar
    21    22    23    1
    22    23    24   ar
    23    24    25   ar
    24    25    26   ar
    25    26    27   ar
    26    27    28   ar
    27     6     1   ar
    28    12     7   ar
    29    28    23   ar
    30    19    17    1
    31    15    16    1
@<TRIPOS>MOLECULE
*****
 28 31 0 0 0
SMALL
GASTEIGER

@<TRIPOS>ATOM
      1 C         143.6026  139.4456  164.2585 C.ar    1  UNL1        0.1404
      2 C         143.2820  138.7864  165.5671 C.ar    1  UNL1        0.0371
      3 C         142.8645  139.6183  166.7434 C.ar    1  UNL1        0.0076
      4 C         142.7677  141.1093  166.6111 C.ar    1  UNL1        0.0536
      5 C         143.0883  141.7684  165.3024 C.ar    1  UNL1        0.0091
      6 C         143.5058  140.9366  164.1261 C.ar    1  UNL1        0.0551
      7 C         143.8264  141.5958  162.8174 C.ar    1  UNL1        0.1261
      8 C         142.8329  142.1823  161.8588 C.ar    1  UNL1        0.1177
      9 N         143.5893  142.7331  160.6865 N.ar    1  UNL1       -0.2282
     10 C         142.9900  143.4111  159.4901 C.3     1  UNL1        0.1556
     11 N         145.0504  142.4870  160.9205 N.ar    1  UNL1       -0.0637
     12 N         145.1969  141.7841  162.2375 N.ar    1  UNL1       -0.1286
     13 C         142.3502  141.9411  167.7875 C.2     1  UNL1        0.2458
     14 O         143.3864  142.6356  168.6204 O.2     1  UNL1       -0.2701
     15 N         140.8965  142.0784  168.1309 N.am    1  UNL1       -0.3025
     16 H         140.2164  141.6225  167.5842 H       1  UNL1        0.1497
     17 C         140.4790  142.9102  169.3073 C.3     1  UNL1        0.0720
     18 C         140.4009  144.2410  169.9949 C.3     1  UNL1        0.0213
     19 C         139.8342  143.0202  170.6571 C.3     1  UNL1        0.0213
     20 O         144.0201  138.6138  163.0821 O.3     1  UNL1       -0.4731
     21 C         143.4380  137.6099  160.7576 C.3     1  UNL1        0.0540
     22 C         142.9982  138.1673  162.0789 C.3     1  UNL1        0.2056
     23 C         141.5365  138.2782  162.3969 C.ar    1  UNL1        0.0986
     24 C         140.8897  137.2792  163.3100 C.ar    1  UNL1        0.0183
     25 C         139.4281  137.3901  163.6281 C.ar    1  UNL1        0.0029
     26 C         138.6132  138.5000  163.0332 C.ar    1  UNL1        0.0207
     27 C         139.2600  139.4990  162.1201 C.ar    1  UNL1        0.0986
     28 N         140.7216  139.3881  161.8020 N.ar    1  UNL1       -0.2446
@<TRIPOS>BOND
     1    22    21    1
     2    22    20    1
     3    20     1    1
     4     1     2   ar
     5     2     3   ar
     6     3     4   ar
     7     4    13    1
     8    13    14    2
     9    13    15   am
    10    15    17    1
    11    17    18    1
    12    18    19    1
    13     4     5   ar
    14     5     6   ar
    15     6     7    1
    16     7     8   ar
    17     8     9   ar
    18     9    10    1
    19     9    11   ar
    20    11    12   ar
    21    22    23    1
    22    23    24   ar
    23    24    25   ar
    24    25    26   ar
    25    26    27   ar
    26    27    28   ar
    27     6     1   ar
    28    12     7   ar
    29    28    23   ar
    30    19    17    1
    31    15    16    1
@<TRIPOS>MOLECULE
*****
 28 31 0 0 0
SMALL
GASTEIGER

@<TRIPOS>ATOM
      1 C         138.3122  140.6942  164.4584 C.ar    1  UNL1        0.1404
      2 C         138.3974  139.6186  165.5004 C.ar    1  UNL1        0.0371
      3 C         139.2468  139.8214  166.7199 C.ar    1  UNL1        0.0076
      4 C         140.0111  141.0999  166.8974 C.ar    1  UNL1        0.0536
      5 C         139.9259  142.1755  165.8554 C.ar    1  UNL1        0.0091
      6 C         139.0765  141.9726  164.6359 C.ar    1  UNL1        0.0551
      7 C         138.9913  143.0483  163.5939 C.ar    1  UNL1        0.1261
      8 C         140.0263  143.3493  162.5508 C.ar    1  UNL1        0.1177
      9 N         139.5308  144.4988  161.7242 N.ar    1  UNL1       -0.2282
     10 C         140.2502  145.1283  160.5683 C.3     1  UNL1        0.1556
     11 N         138.1894  144.9082  162.2565 N.ar    1  UNL1       -0.0637
     12 N         137.8560  144.0117  163.4120 N.ar    1  UNL1       -0.1286
     13 C         140.8606  141.3027  168.1170 C.2     1  UNL1        0.2458
     14 O         140.6683  140.4263  169.3191 O.2     1  UNL1       -0.2701
     15 N         141.9022  142.3818  168.1345 N.am    1  UNL1       -0.3025
     16 H         142.0284  142.9570  167.3456 H       1  UNL1        0.1497
     17 C         142.7517  142.5846  169.3541 C.3     1  UNL1        0.0720
     18 C         142.9522  143.1910  170.7113 C.3     1  UNL1        0.0213
     19 C         144.0224  142.3295  170.1093 C.3     1  UNL1        0.0213
     20 O         137.4628  140.4914  163.2388 O.3     1  UNL1       -0.4731
     21 C         137.2066  139.6610  160.7904 C.3     1  UNL1        0.0540
     22 C         138.0303  139.7967  162.0366 C.3     1  UNL1        0.2056
     23 C         139.4216  139.2377  162.0806 C.ar    1  UNL1        0.0986
     24 C         139.6632  137.8715  162.6508 C.ar    1  UNL1        0.0183
     25 C         141.0544  137.3125  162.6949 C.ar    1  UNL1        0.0029
     26 C         142.2040  138.1196  162.1688 C.ar    1  UNL1        0.0207
     27 C         141.9624  139.4858  161.5985 C.ar    1  UNL1        0.0986
     28 N         140.5712  140.0449  161.5545 N.ar    1  UNL1       -0.2446
@<TRIPOS>BOND
     1    22    21    1
     2    22    20    1
     3    20     1    1
     4     1     2   ar
     5     2     3   ar
     6     3     4   ar
     7     4    13    1
     8    13    14    2
     9    13    15   am
    10    15    17    1
    11    17    18    1
    12    18    19    1
    13     4     5   ar
    14     5     6   ar
    15     6     7    1
    16     7     8   ar
    17     8     9   ar
    18     9    10    1
    19     9    11   ar
    20    11    12   ar
    21    22    23    1
    22    23    24   ar
    23    24    25   ar
    24    25    26   ar
    25    26    27   ar
    26    27    28   ar
    27     6     1   ar
    28    12     7   ar
    29    28    23   ar
    30    19    17    1
    31    15    16    1
@<TRIPOS>MOLECULE
*****
 28 31 0 0 0
SMALL
GASTEIGER

@<TRIPOS>ATOM
      1 C         138.2944  140.8158  164.4157 C.ar    1  UNL1        0.1404
      2 C         138.4007  139.6987  165.4110 C.ar    1  UNL1        0.0371
      3 C         139.2728  139.8533  166.6215 C.ar    1  UNL1        0.0076
      4 C         140.0386  141.1249  166.8368 C.ar    1  UNL1        0.0536
      5 C         139.9324  142.2421  165.8415 C.ar    1  UNL1        0.0091
      6 C         139.0603  142.0875  164.6309 C.ar    1  UNL1        0.0551
      7 C         138.9540  143.2047  163.6355 C.ar    1  UNL1        0.1261
      8 C         140.0519  143.6930  162.7377 C.ar    1  UNL1        0.1177
      9 N         139.5075  144.8198  161.9105 N.ar    1  UNL1       -0.2282
     10 C         140.2646  145.6013  160.8780 C.3     1  UNL1        0.1556
     11 N         138.0732  145.0278  162.2972 N.ar    1  UNL1       -0.0637
     12 N         137.7311  144.0296  163.3633 N.ar    1  UNL1       -0.1286
     13 C         140.9108  141.2794  168.0474 C.2     1  UNL1        0.2458
     14 O         140.8003  140.3032  169.1809 O.2     1  UNL1       -0.2701
     15 N         141.8934  142.4101  168.1246 N.am    1  UNL1       -0.3025
     16 H         141.9659  143.0509  167.3806 H       1  UNL1        0.1497
     17 C         142.7655  142.5646  169.3352 C.3     1  UNL1        0.0720
     18 C         142.9793  143.0905  170.7236 C.3     1  UNL1        0.0213
     19 C         144.0622  142.3064  170.0436 C.3     1  UNL1        0.0213
     20 O         137.4223  140.6613  163.2050 O.3     1  UNL1       -0.4731
     21 C         137.6939  138.5295  161.7451 C.3     1  UNL1        0.0540
     22 C         137.9575  139.9879  161.9762 C.3     1  UNL1        0.2056
     23 C         138.7563  140.7730  160.9784 C.ar    1  UNL1        0.0986
     24 C         140.2170  140.4858  160.7943 C.ar    1  UNL1        0.0183
     25 C         141.0158  141.2708  159.7966 C.ar    1  UNL1        0.0029
     26 C         140.3540  142.3431  158.9829 C.ar    1  UNL1        0.0207
     27 C         138.8933  142.6304  159.1670 C.ar    1  UNL1        0.0986
     28 N         138.0945  141.8453  160.1647 N.ar    1  UNL1       -0.2446
@<TRIPOS>BOND
     1    22    21    1
     2    22    20    1
     3    20     1    1
     4     1     2   ar
     5     2     3   ar
     6     3     4   ar
     7     4    13    1
     8    13    14    2
     9    13    15   am
    10    15    17    1
    11    17    18    1
    12    18    19    1
    13     4     5   ar
    14     5     6   ar
    15     6     7    1
    16     7     8   ar
    17     8     9   ar
    18     9    10    1
    19     9    11   ar
    20    11    12   ar
    21    22    23    1
    22    23    24   ar
    23    24    25   ar
    24    25    26   ar
    25    26    27   ar
    26    27    28   ar
    27     6     1   ar
    28    12     7   ar
    29    28    23   ar
    30    19    17    1
    31    15    16    1
@<TRIPOS>MOLECULE
*****
 28 31 0 0 0
SMALL
GASTEIGER

@<TRIPOS>ATOM
      1 C         141.9461  138.4211  164.4313 C.ar    1  UNL1        0.1404
      2 C         142.9002  138.5691  165.5793 C.ar    1  UNL1        0.0371
      3 C         142.4773  139.3055  166.8157 C.ar    1  UNL1        0.0076
      4 C         141.1003  139.8939  166.9042 C.ar    1  UNL1        0.0536
      5 C         140.1463  139.7459  165.7562 C.ar    1  UNL1        0.0091
      6 C         140.5692  139.0095  164.5198 C.ar    1  UNL1        0.0551
      7 C         139.6151  138.8614  163.3717 C.ar    1  UNL1        0.1261
      8 C         139.2870  139.9156  162.3564 C.ar    1  UNL1        0.1177
      9 N         138.2908  139.3389  161.3947 N.ar    1  UNL1       -0.2282
     10 C         137.6880  140.0483  160.2185 C.3     1  UNL1        0.1556
     11 N         138.0032  137.9281  161.8156 N.ar    1  UNL1       -0.0637
     12 N         138.8217  137.6331  163.0375 N.ar    1  UNL1       -0.1286
     13 C         140.6775  140.6304  168.1407 C.2     1  UNL1        0.2458
     14 O         140.1558  139.8710  169.3244 O.2     1  UNL1       -0.2701
     15 N         140.7762  142.1262  168.1934 N.am    1  UNL1       -0.3025
     16 H         141.1186  142.6246  167.4165 H       1  UNL1        0.1497
     17 C         140.3534  142.8626  169.4299 C.3     1  UNL1        0.0720
     18 C         139.6566  142.8783  170.7581 C.3     1  UNL1        0.0213
     19 C         140.3177  144.1224  170.2433 C.3     1  UNL1        0.0213
     20 O         142.3690  137.6846  163.1948 O.3     1  UNL1       -0.4731
     21 C         143.6368  137.6365  160.9276 C.3     1  UNL1        0.0540
     22 C         143.2075  138.3752  162.1604 C.3     1  UNL1        0.2056
     23 C         143.6166  139.8047  162.3588 C.ar    1  UNL1        0.0986
     24 C         144.8940  140.1265  163.0762 C.ar    1  UNL1        0.0183
     25 C         145.3031  141.5559  163.2747 C.ar    1  UNL1        0.0029
     26 C         144.4348  142.6635  162.7557 C.ar    1  UNL1        0.0207
     27 C         143.1574  142.3416  162.0383 C.ar    1  UNL1        0.0986
     28 N         142.7483  140.9123  161.8399 N.ar    1  UNL1       -0.2446
@<TRIPOS>BOND
     1    22    21    1
     2    22    20    1
     3    20     1    1
     4     1     2   ar
     5     2     3   ar
     6     3     4   ar
     7     4    13    1
     8    13    14    2
     9    13    15   am
    10    15    17    1
    11    17    18    1
    12    18    19    1
    13     4     5   ar
    14     5     6   ar
    15     6     7    1
    16     7     8   ar
    17     8     9   ar
    18     9    10    1
    19     9    11   ar
    20    11    12   ar
    21    22    23    1
    22    23    24   ar
    23    24    25   ar
    24    25    26   ar
    25    26    27   ar
    26    27    28   ar
    27     6     1   ar
    28    12     7   ar
    29    28    23   ar
    30    19    17    1
    31    15    16    1
@<TRIPOS>MOLECULE
*****
 28 31 0 0 0
SMALL
GASTEIGER

@<TRIPOS>ATOM
      1 C         141.0780  143.2231  164.8032 C.ar    1  UNL1        0.1404
      2 C         141.6240  144.5326  164.3165 C.ar    1  UNL1        0.0371
      3 C         141.4534  144.9288  162.8799 C.ar    1  UNL1        0.0076
      4 C         140.7367  144.0155  161.9301 C.ar    1  UNL1        0.0536
      5 C         140.1906  142.7060  162.4168 C.ar    1  UNL1        0.0091
      6 C         140.3613  142.3098  163.8534 C.ar    1  UNL1        0.0551
      7 C         139.8152  141.0002  164.3402 C.ar    1  UNL1        0.1261
      8 C         138.9560  140.7995  165.5532 C.ar    1  UNL1        0.1177
      9 N         138.6423  139.3367  165.6621 N.ar    1  UNL1       -0.2282
     10 C         137.8094  138.6906  166.7293 C.3     1  UNL1        0.1556
     11 N         139.3077  138.6333  164.5164 N.ar    1  UNL1       -0.0637
     12 N         140.0326  139.6615  163.6994 N.ar    1  UNL1       -0.1286
     13 C         140.5660  144.4118  160.4934 C.2     1  UNL1        0.2458
     14 O         139.3682  143.9413  159.7228 O.2     1  UNL1       -0.2701
     15 N         141.5932  145.2786  159.8274 N.am    1  UNL1       -0.3025
     16 H         142.3794  145.5874  160.3332 H       1  UNL1        0.1497
     17 C         141.4226  145.6749  158.3907 C.3     1  UNL1        0.0720
     18 C         140.5443  146.1386  157.2666 C.3     1  UNL1        0.0213
     19 C         142.0052  145.8975  157.0266 C.3     1  UNL1        0.0213
     20 O         141.2486  142.8268  166.2399 O.3     1  UNL1       -0.4731
     21 C         143.0131  142.3559  168.0878 C.3     1  UNL1        0.0540
     22 C         142.5133  142.1560  166.6877 C.3     1  UNL1        0.2056
     23 C         143.2783  141.2854  165.7354 C.ar    1  UNL1        0.0986
     24 C         144.3371  141.8839  164.8575 C.ar    1  UNL1        0.0183
     25 C         145.1021  141.0133  163.9052 C.ar    1  UNL1        0.0029
     26 C         144.8082  139.5443  163.8308 C.ar    1  UNL1        0.0207
     27 C         143.7494  138.9458  164.7087 C.ar    1  UNL1        0.0986
     28 N         142.9844  139.8164  165.6610 N.ar    1  UNL1       -0.2446
@<TRIPOS>BOND
     1    22    21    1
     2    22    20    1
     3    20     1    1
     4     1     2   ar
     5     2     3   ar
     6     3     4   ar
     7     4    13    1
     8    13    14    2
     9    13    15   am
    10    15    17    1
    11    17    18    1
    12    18    19    1
    13     4     5   ar
    14     5     6   ar
    15     6     7    1
    16     7     8   ar
    17     8     9   ar
    18     9    10    1
    19     9    11   ar
    20    11    12   ar
    21    22    23    1
    22    23    24   ar
    23    24    25   ar
    24    25    26   ar
    25    26    27   ar
    26    27    28   ar
    27     6     1   ar
    28    12     7   ar
    29    28    23   ar
    30    19    17    1
    31    15    16    1
@<TRIPOS>MOLECULE
*****
 28 31 0 0 0
SMALL
GASTEIGER

@<TRIPOS>ATOM
      1 C         138.9628  139.3128  164.2574 C.ar    1  UNL1        0.1404
      2 C         138.2233  139.7614  165.4828 C.ar    1  UNL1        0.0371
      3 C         138.9836  140.1938  166.7014 C.ar    1  UNL1        0.0076
      4 C         140.4835  140.1775  166.6944 C.ar    1  UNL1        0.0536
      5 C         141.2231  139.7289  165.4690 C.ar    1  UNL1        0.0091
      6 C         140.4627  139.2965  164.2505 C.ar    1  UNL1        0.0551
      7 C         141.2022  138.8479  163.0249 C.ar    1  UNL1        0.1261
      8 C         142.1774  139.6683  162.2338 C.ar    1  UNL1        0.1177
      9 N         142.6742  138.8275  161.0953 N.ar    1  UNL1       -0.2282
     10 C         143.6652  139.2522  160.0524 C.3     1  UNL1        0.1556
     11 N         142.0061  137.4873  161.1828 N.ar    1  UNL1       -0.0637
     12 N         141.0964  137.4999  162.3754 N.ar    1  UNL1       -0.1286
     13 C         141.2439  140.6099  167.9131 C.2     1  UNL1        0.2458
     14 O         141.2058  139.7726  169.1571 O.2     1  UNL1       -0.2701
     15 N         142.0423  141.8795  167.8876 N.am    1  UNL1       -0.3025
     16 H         142.0672  142.4290  167.0712 H       1  UNL1        0.1497
     17 C         142.8026  142.3119  169.1063 C.3     1  UNL1        0.0720
     18 C         144.0954  142.4249  169.8586 C.3     1  UNL1        0.0213
     19 C         142.8268  142.9478  170.4646 C.3     1  UNL1        0.0213
     20 O         138.2024  138.8804  163.0387 O.3     1  UNL1       -0.4731
     21 C         137.3181  139.3978  160.6513 C.3     1  UNL1        0.0540
     22 C         137.9148  139.8661  161.9453 C.3     1  UNL1        0.2056
     23 C         138.2239  141.3202  162.1460 C.ar    1  UNL1        0.0986
     24 C         139.4646  141.9129  161.5465 C.ar    1  UNL1        0.0183
     25 C         139.7737  143.3669  161.7471 C.ar    1  UNL1        0.0029
     26 C         138.8421  144.2282  162.5472 C.ar    1  UNL1        0.0207
     27 C         137.6014  143.6355  163.1467 C.ar    1  UNL1        0.0986
     28 N         137.2923  142.1815  162.9461 N.ar    1  UNL1       -0.2446
@<TRIPOS>BOND
     1    22    21    1
     2    22    20    1
     3    20     1    1
     4     1     2   ar
     5     2     3   ar
     6     3     4   ar
     7     4    13    1
     8    13    14    2
     9    13    15   am
    10    15    17    1
    11    17    18    1
    12    18    19    1
    13     4     5   ar
    14     5     6   ar
    15     6     7    1
    16     7     8   ar
    17     8     9   ar
    18     9    10    1
    19     9    11   ar
    20    11    12   ar
    21    22    23    1
    22    23    24   ar
    23    24    25   ar
    24    25    26   ar
    25    26    27   ar
    26    27    28   ar
    27     6     1   ar
    28    12     7   ar
    29    28    23   ar
    30    19    17    1
    31    15    16    1
@<TRIPOS>MOLECULE
*****
 28 31 0 0 0
SMALL
GASTEIGER

@<TRIPOS>ATOM
      1 C         138.3715  140.2209  163.7812 C.ar    1  UNL1        0.1404
      2 C         138.4501  138.9233  164.5296 C.ar    1  UNL1        0.0371
      3 C         138.9882  138.8964  165.9295 C.ar    1  UNL1        0.0076
      4 C         139.4478  140.1670  166.5809 C.ar    1  UNL1        0.0536
      5 C         139.3692  141.4646  165.8325 C.ar    1  UNL1        0.0091
      6 C         138.8310  141.4915  164.4327 C.ar    1  UNL1        0.0551
      7 C         138.7524  142.7891  163.6842 C.ar    1  UNL1        0.1261
      8 C         139.9151  143.6488  163.2855 C.ar    1  UNL1        0.1177
      9 N         139.3786  144.8457  162.5579 N.ar    1  UNL1       -0.2282
     10 C         140.1933  145.9660  161.9823 C.3     1  UNL1        0.1556
     11 N         137.8842  144.7258  162.5069 N.ar    1  UNL1       -0.0637
     12 N         137.4973  143.4547  163.2029 N.ar    1  UNL1       -0.1286
     13 C         139.9859  140.1400  167.9809 C.2     1  UNL1        0.2458
     14 O         139.0979  139.7294  169.1179 O.2     1  UNL1       -0.2701
     15 N         141.4120  140.5237  168.2437 N.am    1  UNL1       -0.3025
     16 H         141.9948  140.7931  167.4974 H       1  UNL1        0.1497
     17 C         141.9501  140.4967  169.6436 C.3     1  UNL1        0.0720
     18 C         141.8996  140.9756  171.0642 C.3     1  UNL1        0.0213
     19 C         142.9327  139.9710  170.6478 C.3     1  UNL1        0.0213
     20 O         137.8334  140.2478  162.3813 O.3     1  UNL1       -0.4731
     21 C         138.2605  140.2377  159.8186 C.3     1  UNL1        0.0540
     22 C         138.7557  140.0285  161.2189 C.3     1  UNL1        0.2056
     23 C         140.1734  139.6000  161.4569 C.ar    1  UNL1        0.0986
     24 C         141.2613  140.6281  161.5547 C.ar    1  UNL1        0.0183
     25 C         142.6790  140.1997  161.7926 C.ar    1  UNL1        0.0029
     26 C         143.0087  138.7431  161.9328 C.ar    1  UNL1        0.0207
     27 C         141.9209  137.7150  161.8349 C.ar    1  UNL1        0.0986
     28 N         140.5032  138.1435  161.5970 N.ar    1  UNL1       -0.2446
@<TRIPOS>BOND
     1    22    21    1
     2    22    20    1
     3    20     1    1
     4     1     2   ar
     5     2     3   ar
     6     3     4   ar
     7     4    13    1
     8    13    14    2
     9    13    15   am
    10    15    17    1
    11    17    18    1
    12    18    19    1
    13     4     5   ar
    14     5     6   ar
    15     6     7    1
    16     7     8   ar
    17     8     9   ar
    18     9    10    1
    19     9    11   ar
    20    11    12   ar
    21    22    23    1
    22    23    24   ar
    23    24    25   ar
    24    25    26   ar
    25    26    27   ar
    26    27    28   ar
    27     6     1   ar
    28    12     7   ar
    29    28    23   ar
    30    19    17    1
    31    15    16    1
