@<TRIPOS>MOLECULE
*****
 45 51 0 0 0
SMALL
GASTEIGER

@<TRIPOS>ATOM
      1 C         142.6829  139.3249  158.8351 C.ar    1  UNL1        0.0358
      2 C         143.6369  140.3803  158.3596 C.ar    1  UNL1        0.0029
      3 C         144.0188  141.5106  159.2687 C.ar    1  UNL1        0.0016
      4 C         143.4468  141.5855  160.6533 C.ar    1  UNL1        0.0174
      5 C         142.4929  140.5302  161.1288 C.ar    1  UNL1        0.0653
      6 C         142.1109  139.3999  160.2198 C.ar    1  UNL1        0.0261
      7 N         141.9209  140.6051  162.5135 N.ar    1  UNL1       -0.2733
      8 C         140.6402  141.3472  162.7568 C.ar    1  UNL1        0.0829
      9 C         140.0683  141.4222  164.1414 C.ar    1  UNL1        0.0193
     10 C         140.7770  140.7550  165.2828 C.ar    1  UNL1        0.0080
     11 C         140.2050  140.8299  166.6674 C.ar    1  UNL1       -0.0039
     12 C         140.9136  140.1628  167.8088 C.ar    1  UNL1       -0.0203
     13 C         142.1943  139.4206  167.5654 C.ar    1  UNL1        0.0255
     14 C         142.7662  139.3457  166.1808 C.ar    1  UNL1        0.1444
     15 F         144.0469  138.6035  165.9375 F       1  UNL1       -0.2040
     16 C         142.0576  140.0129  165.0395 C.ar    1  UNL1        0.0839
     17 C         142.6295  139.9379  163.6548 C.ar    1  UNL1        0.2668
     18 O         143.9102  139.1958  163.4115 O.2     1  UNL1       -0.2665
     19 C         140.3417  140.2377  169.1934 C.3     1  UNL1        0.0224
     20 C         140.5278  140.1799  170.6806 C.3     1  UNL1        0.0047
     21 C         139.1649  140.4253  170.1044 C.3     1  UNL1        0.0047
     22 C         142.9427  136.0423  156.6200 C.ar    1  UNL1        0.2244
     23 N         141.5369  135.9340  156.1078 N.ar    1  UNL1       -0.1810
     24 C         140.5133  136.9560  156.5047 C.ar    1  UNL1        0.2174
     25 N         139.1076  136.8477  155.9925 N.pl3   1  UNL1       -0.3273
     26 N         140.8953  138.0863  157.4138 N.ar    1  UNL1       -0.1948
     27 C         142.3009  138.1946  157.9260 C.ar    1  UNL1        0.1678
     28 N         143.3246  137.1726  157.5291 N.ar    1  UNL1       -0.1943
     29 H         138.8569  136.1059  155.3958 H       1  UNL1        0.1452
     30 H         138.4357  137.5185  156.2530 H       1  UNL1        0.1452
     31 N         143.9663  135.0202  156.2231 N.pl3   1  UNL1       -0.2812
     32 H         144.8322  135.3085  155.8538 H       1  UNL1        0.1551
     33 C         142.7523  131.3374  156.0546 C.ar    1  UNL1        0.1309
     34 C         142.7472  132.7437  155.5329 C.ar    1  UNL1        0.0440
     35 C         143.6707  133.5590  156.3888 C.ar    1  UNL1        0.0701
     36 C         144.2465  132.6565  157.4395 C.ar    1  UNL1        0.0912
     37 N         143.6790  131.2835  157.2330 N.ar    1  UNL1       -0.3190
     38 C         143.9844  130.0697  158.0597 C.3     1  UNL1        0.0863
     39 C         143.5149  128.8808  158.8446 C.3     1  UNL1        0.0245
     40 C         144.9829  129.1562  158.7065 C.3     1  UNL1        0.0245
     41 N         141.1846  129.0364  154.9375 N.1     1  UNL1       -0.1893
     42 C         141.9685  130.1869  155.4961 C.1     1  UNL1        0.1180
     43 C         141.1569  138.3445  160.6953 C.3     1  UNL1        0.1651
     44 O         141.6347  137.2621  161.6174 O.3     1  UNL1       -0.3772
     45 H         142.2776  136.7029  161.1538 H       1  UNL1        0.2109
@<TRIPOS>BOND
     1    41    42    3
     2    42    33    1
     3    33    34   ar
     4    34    35   ar
     5    35    31    1
     6    31    22    1
     7    22    23   ar
     8    23    24   ar
     9    24    25    1
    10    24    26   ar
    11    26    27   ar
    12    27     1    1
    13     1     2   ar
    14     2     3   ar
    15     3     4   ar
    16     4     5   ar
    17     5     7    1
    18     7     8   ar
    19     8     9   ar
    20     9    10   ar
    21    10    11   ar
    22    11    12   ar
    23    12    19    1
    24    19    20    1
    25    20    21    1
    26    12    13   ar
    27    13    14   ar
    28    14    15    1
    29    14    16   ar
    30    16    17   ar
    31    17    18    2
    32     5     6   ar
    33     6    43    1
    34    43    44    1
    35    27    28   ar
    36    35    36   ar
    37    36    37   ar
    38    37    38    1
    39    38    39    1
    40    39    40    1
    41    37    33   ar
    42    40    38    1
    43    28    22   ar
    44     6     1   ar
    45    17     7   ar
    46    16    10   ar
    47    21    19    1
    48    31    32    1
    49    25    29    1
    50    25    30    1
    51    44    45    1
@<TRIPOS>MOLECULE
*****
 45 51 0 0 0
SMALL
GASTEIGER

@<TRIPOS>ATOM
      1 C         139.6870  140.6788  158.1056 C.ar    1  UNL1        0.0358
      2 C         140.8944  140.0286  157.4977 C.ar    1  UNL1        0.0029
      3 C         142.0109  139.5493  158.3773 C.ar    1  UNL1        0.0016
      4 C         141.9201  139.7202  159.8648 C.ar    1  UNL1        0.0174
      5 C         140.7127  140.3704  160.4727 C.ar    1  UNL1        0.0653
      6 C         139.5962  140.8496  159.5931 C.ar    1  UNL1        0.0261
      7 N         140.6219  140.5412  161.9602 N.ar    1  UNL1       -0.2733
      8 C         141.2334  141.7439  162.6157 C.ar    1  UNL1        0.0829
      9 C         141.1426  141.9147  164.1031 C.ar    1  UNL1        0.0193
     10 C         140.4402  140.8829  164.9351 C.ar    1  UNL1        0.0080
     11 C         140.3494  141.0538  166.4226 C.ar    1  UNL1       -0.0039
     12 C         139.6471  140.0220  167.2545 C.ar    1  UNL1       -0.0203
     13 C         139.0355  138.8194  166.5989 C.ar    1  UNL1        0.0255
     14 C         139.1263  138.6485  165.1115 C.ar    1  UNL1        0.1444
     15 F         138.5148  137.4459  164.4560 F       1  UNL1       -0.2040
     16 C         139.8287  139.6803  164.2796 C.ar    1  UNL1        0.0839
     17 C         139.9195  139.5095  162.7921 C.ar    1  UNL1        0.2668
     18 O         139.3080  138.3068  162.1366 O.2     1  UNL1       -0.2665
     19 C         139.5562  140.1929  168.7420 C.3     1  UNL1        0.0224
     20 C         140.1918  140.1226  170.0988 C.3     1  UNL1        0.0047
     21 C         138.7633  140.5590  169.9614 C.3     1  UNL1        0.0047
     22 C         136.3818  140.6839  155.9090 C.ar    1  UNL1        0.2244
     23 N         136.3374  142.1167  155.4669 N.ar    1  UNL1       -0.1810
     24 C         137.4096  143.0701  155.9044 C.ar    1  UNL1        0.2174
     25 N         137.3653  144.5027  155.4624 N.pl3   1  UNL1       -0.3273
     26 N         138.5262  142.5907  156.7840 N.ar    1  UNL1       -0.1948
     27 C         138.5705  141.1580  157.2261 C.ar    1  UNL1        0.1678
     28 N         137.4983  140.2046  156.7886 N.ar    1  UNL1       -0.1943
     29 H         136.6325  144.8173  154.8851 H       1  UNL1        0.1452
     30 H         138.0691  145.1285  155.7495 H       1  UNL1        0.1452
     31 N         135.3095  139.7305  155.4715 N.pl3   1  UNL1       -0.2812
     32 H         135.5483  138.9178  154.9699 H       1  UNL1        0.1551
     33 C         131.6693  139.9009  156.8078 C.ar    1  UNL1        0.1309
     34 C         133.0384  139.2880  156.8099 C.ar    1  UNL1        0.0440
     35 C         133.8735  140.0155  155.7984 C.ar    1  UNL1        0.0701
     36 C         133.0206  141.0781  155.1711 C.ar    1  UNL1        0.0912
     37 N         131.6584  141.0072  155.7949 N.ar    1  UNL1       -0.3190
     38 C         130.4902  141.8881  155.4640 C.3     1  UNL1        0.0863
     39 C         129.0103  142.0809  155.3130 C.3     1  UNL1        0.0245
     40 C         129.9467  143.2209  155.0420 C.3     1  UNL1        0.0245
     41 N         129.3588  139.0614  158.5274 N.1     1  UNL1       -0.1893
     42 C         130.5141  139.4811  157.6676 C.1     1  UNL1        0.1180
     43 C         138.3888  141.4998  160.2010 C.3     1  UNL1        0.1651
     44 O         138.2115  142.9865  160.1094 O.3     1  UNL1       -0.3772
     45 H         138.9080  143.4274  160.6207 H       1  UNL1        0.2109
@<TRIPOS>BOND
     1    41    42    3
     2    42    33    1
     3    33    34   ar
     4    34    35   ar
     5    35    31    1
     6    31    22    1
     7    22    23   ar
     8    23    24   ar
     9    24    25    1
    10    24    26   ar
    11    26    27   ar
    12    27     1    1
    13     1     2   ar
    14     2     3   ar
    15     3     4   ar
    16     4     5   ar
    17     5     7    1
    18     7     8   ar
    19     8     9   ar
    20     9    10   ar
    21    10    11   ar
    22    11    12   ar
    23    12    19    1
    24    19    20    1
    25    20    21    1
    26    12    13   ar
    27    13    14   ar
    28    14    15    1
    29    14    16   ar
    30    16    17   ar
    31    17    18    2
    32     5     6   ar
    33     6    43    1
    34    43    44    1
    35    27    28   ar
    36    35    36   ar
    37    36    37   ar
    38    37    38    1
    39    38    39    1
    40    39    40    1
    41    37    33   ar
    42    40    38    1
    43    28    22   ar
    44     6     1   ar
    45    17     7   ar
    46    16    10   ar
    47    21    19    1
    48    31    32    1
    49    25    29    1
    50    25    30    1
    51    44    45    1
@<TRIPOS>MOLECULE
*****
 45 51 0 0 0
SMALL
GASTEIGER

@<TRIPOS>ATOM
      1 C         139.5635  139.9273  158.2786 C.ar    1  UNL1        0.0358
      2 C         140.7433  139.1850  157.7244 C.ar    1  UNL1        0.0029
      3 C         141.6612  138.4393  158.6472 C.ar    1  UNL1        0.0016
      4 C         141.3993  138.4360  160.1241 C.ar    1  UNL1        0.0174
      5 C         140.2195  139.1783  160.6783 C.ar    1  UNL1        0.0653
      6 C         139.3017  139.9239  159.7556 C.ar    1  UNL1        0.0261
      7 N         139.9577  139.1749  162.1553 N.ar    1  UNL1       -0.2733
      8 C         139.1686  138.0597  162.7746 C.ar    1  UNL1        0.0829
      9 C         138.9068  138.0564  164.2515 C.ar    1  UNL1        0.0193
     10 C         139.4340  139.1683  165.1092 C.ar    1  UNL1        0.0080
     11 C         139.1722  139.1649  166.5862 C.ar    1  UNL1       -0.0039
     12 C         139.6995  140.2768  167.4439 C.ar    1  UNL1       -0.0203
     13 C         140.4886  141.3921  166.8246 C.ar    1  UNL1        0.0255
     14 C         140.7504  141.3954  165.3477 C.ar    1  UNL1        0.1444
     15 F         141.5395  142.5107  164.7284 F       1  UNL1       -0.2040
     16 C         140.2231  140.2835  164.4900 C.ar    1  UNL1        0.0839
     17 C         140.4850  140.2868  163.0130 C.ar    1  UNL1        0.2668
     18 O         141.2741  141.4021  162.3937 O.2     1  UNL1       -0.2665
     19 C         139.4376  140.2735  168.9209 C.3     1  UNL1        0.0224
     20 C         139.9493  140.2648  170.3308 C.3     1  UNL1        0.0047
     21 C         138.4724  140.2764  170.0690 C.3     1  UNL1        0.0047
     22 C         136.6124  140.6950  155.7387 C.ar    1  UNL1        0.2244
     23 N         136.8099  142.1643  155.5104 N.ar    1  UNL1       -0.1810
     24 C         137.9253  142.8880  156.2048 C.ar    1  UNL1        0.2174
     25 N         138.1228  144.3572  155.9766 N.pl3   1  UNL1       -0.3273
     26 N         138.8432  142.1422  157.1276 N.ar    1  UNL1       -0.1948
     27 C         138.6457  140.6730  157.3559 C.ar    1  UNL1        0.1678
     28 N         137.5303  139.9493  156.6614 N.ar    1  UNL1       -0.1943
     29 H         137.5204  144.8467  155.3709 H       1  UNL1        0.1452
     30 H         138.8549  144.8322  156.4324 H       1  UNL1        0.1452
     31 N         135.4970  139.9713  155.0443 N.pl3   1  UNL1       -0.2812
     32 H         135.6978  139.3417  154.3146 H       1  UNL1        0.1551
     33 C         131.9404  140.0085  156.5984 C.ar    1  UNL1        0.1309
     34 C         133.3244  139.4374  156.5071 C.ar    1  UNL1        0.0440
     35 C         134.0756  140.2071  155.4616 C.ar    1  UNL1        0.0701
     36 C         133.1559  141.2541  154.9066 C.ar    1  UNL1        0.0912
     37 N         131.8363  141.1314  155.6091 N.ar    1  UNL1       -0.3190
     38 C         130.6251  141.9821  155.3653 C.3     1  UNL1        0.0863
     39 C         129.1350  142.1539  155.3749 C.3     1  UNL1        0.0245
     40 C         130.0175  143.2837  154.9335 C.3     1  UNL1        0.0245
     41 N         129.7631  139.0701  158.4364 N.1     1  UNL1       -0.1893
     42 C         130.8518  139.5393  157.5174 C.1     1  UNL1        0.1180
     43 C         138.1219  140.6662  160.3098 C.3     1  UNL1        0.1651
     44 O         136.9029  139.9131  160.7535 O.3     1  UNL1       -0.3772
     45 H         136.4846  139.4937  159.9854 H       1  UNL1        0.2109
@<TRIPOS>BOND
     1    41    42    3
     2    42    33    1
     3    33    34   ar
     4    34    35   ar
     5    35    31    1
     6    31    22    1
     7    22    23   ar
     8    23    24   ar
     9    24    25    1
    10    24    26   ar
    11    26    27   ar
    12    27     1    1
    13     1     2   ar
    14     2     3   ar
    15     3     4   ar
    16     4     5   ar
    17     5     7    1
    18     7     8   ar
    19     8     9   ar
    20     9    10   ar
    21    10    11   ar
    22    11    12   ar
    23    12    19    1
    24    19    20    1
    25    20    21    1
    26    12    13   ar
    27    13    14   ar
    28    14    15    1
    29    14    16   ar
    30    16    17   ar
    31    17    18    2
    32     5     6   ar
    33     6    43    1
    34    43    44    1
    35    27    28   ar
    36    35    36   ar
    37    36    37   ar
    38    37    38    1
    39    38    39    1
    40    39    40    1
    41    37    33   ar
    42    40    38    1
    43    28    22   ar
    44     6     1   ar
    45    17     7   ar
    46    16    10   ar
    47    21    19    1
    48    31    32    1
    49    25    29    1
    50    25    30    1
    51    44    45    1
@<TRIPOS>MOLECULE
*****
 45 51 0 0 0
SMALL
GASTEIGER

@<TRIPOS>ATOM
      1 C         142.8035  139.4265  158.4850 C.ar    1  UNL1        0.0358
      2 C         143.2601  140.7235  157.8855 C.ar    1  UNL1        0.0029
      3 C         143.6910  141.8509  158.7763 C.ar    1  UNL1        0.0016
      4 C         143.6652  141.6813  160.2664 C.ar    1  UNL1        0.0174
      5 C         143.2086  140.3843  160.8658 C.ar    1  UNL1        0.0653
      6 C         142.7778  139.2569  159.9752 C.ar    1  UNL1        0.0261
      7 N         143.1829  140.2148  162.3561 N.ar    1  UNL1       -0.2733
      8 C         144.4399  139.8569  163.0920 C.ar    1  UNL1        0.0829
      9 C         144.4141  139.6873  164.5821 C.ar    1  UNL1        0.0193
     10 C         143.1313  139.8757  165.3363 C.ar    1  UNL1        0.0080
     11 C         143.1056  139.7061  166.8265 C.ar    1  UNL1       -0.0039
     12 C         141.8227  139.8945  167.5807 C.ar    1  UNL1       -0.0203
     13 C         140.5656  140.2524  166.8447 C.ar    1  UNL1        0.0255
     14 C         140.5914  140.4220  165.3546 C.ar    1  UNL1        0.1444
     15 F         139.3343  140.7799  164.6187 F       1  UNL1       -0.2040
     16 C         141.8742  140.2336  164.6004 C.ar    1  UNL1        0.0839
     17 C         141.9000  140.4031  163.1103 C.ar    1  UNL1        0.2668
     18 O         140.6429  140.7611  162.3742 O.2     1  UNL1       -0.2665
     19 C         141.7969  139.7250  169.0709 C.3     1  UNL1        0.0224
     20 C         141.2276  140.0889  170.4100 C.3     1  UNL1        0.0047
     21 C         142.3216  139.0674  170.3127 C.3     1  UNL1        0.0047
     22 C         142.9499  136.1734  156.2166 C.ar    1  UNL1        0.2244
     23 N         141.5110  136.0443  155.8129 N.ar    1  UNL1       -0.1810
     24 C         140.5029  137.0426  156.3000 C.ar    1  UNL1        0.2174
     25 N         139.0640  136.9135  155.8964 N.pl3   1  UNL1       -0.3273
     26 N         140.9338  138.1700  157.1907 N.ar    1  UNL1       -0.1948
     27 C         142.3727  138.2991  157.5943 C.ar    1  UNL1        0.1678
     28 N         143.3807  137.3008  157.1072 N.ar    1  UNL1       -0.1943
     29 H         138.7812  136.1735  155.3118 H       1  UNL1        0.1452
     30 H         138.4024  137.5687  156.2161 H       1  UNL1        0.1452
     31 N         143.9579  135.1751  155.7295 N.pl3   1  UNL1       -0.2812
     32 H         144.7399  135.4770  155.2132 H       1  UNL1        0.1551
     33 C         143.9905  131.5248  157.0485 C.ar    1  UNL1        0.1309
     34 C         144.4728  132.9438  157.1085 C.ar    1  UNL1        0.0440
     35 C         143.7745  133.7168  156.0291 C.ar    1  UNL1        0.0701
     36 C         142.8607  132.7754  155.3020 C.ar    1  UNL1        0.0912
     37 N         142.9941  131.4207  155.9320 N.ar    1  UNL1       -0.3190
     38 C         142.2601  130.1797  155.5182 C.3     1  UNL1        0.0863
     39 C         141.3514  129.4660  154.5617 C.3     1  UNL1        0.0245
     40 C         141.8975  128.7441  155.7578 C.3     1  UNL1        0.0245
     41 N         144.8650  129.2876  158.8458 N.1     1  UNL1       -0.1893
     42 C         144.4277  130.4062  157.9472 C.1     1  UNL1        0.1180
     43 C         142.3212  137.9599  160.5746 C.3     1  UNL1        0.1651
     44 O         143.3158  136.8734  160.8579 O.3     1  UNL1       -0.3772
     45 H         143.6833  136.5455  160.0223 H       1  UNL1        0.2109
@<TRIPOS>BOND
     1    41    42    3
     2    42    33    1
     3    33    34   ar
     4    34    35   ar
     5    35    31    1
     6    31    22    1
     7    22    23   ar
     8    23    24   ar
     9    24    25    1
    10    24    26   ar
    11    26    27   ar
    12    27     1    1
    13     1     2   ar
    14     2     3   ar
    15     3     4   ar
    16     4     5   ar
    17     5     7    1
    18     7     8   ar
    19     8     9   ar
    20     9    10   ar
    21    10    11   ar
    22    11    12   ar
    23    12    19    1
    24    19    20    1
    25    20    21    1
    26    12    13   ar
    27    13    14   ar
    28    14    15    1
    29    14    16   ar
    30    16    17   ar
    31    17    18    2
    32     5     6   ar
    33     6    43    1
    34    43    44    1
    35    27    28   ar
    36    35    36   ar
    37    36    37   ar
    38    37    38    1
    39    38    39    1
    40    39    40    1
    41    37    33   ar
    42    40    38    1
    43    28    22   ar
    44     6     1   ar
    45    17     7   ar
    46    16    10   ar
    47    21    19    1
    48    31    32    1
    49    25    29    1
    50    25    30    1
    51    44    45    1
@<TRIPOS>MOLECULE
*****
 45 51 0 0 0
SMALL
GASTEIGER

@<TRIPOS>ATOM
      1 C         141.5490  144.1986  158.1039 C.ar    1  UNL1        0.0358
      2 C         142.8551  143.7257  157.5380 C.ar    1  UNL1        0.0029
      3 C         143.8586  143.0538  158.4278 C.ar    1  UNL1        0.0016
      4 C         143.5559  142.8549  159.8834 C.ar    1  UNL1        0.0174
      5 C         142.2498  143.3279  160.4493 C.ar    1  UNL1        0.0653
      6 C         141.2463  143.9997  159.5596 C.ar    1  UNL1        0.0261
      7 N         141.9471  143.1290  161.9049 N.ar    1  UNL1       -0.2733
      8 C         142.3989  144.1460  162.9107 C.ar    1  UNL1        0.0829
      9 C         142.0962  143.9470  164.3663 C.ar    1  UNL1        0.0193
     10 C         141.3417  142.7311  164.8161 C.ar    1  UNL1        0.0080
     11 C         141.0391  142.5322  166.2718 C.ar    1  UNL1       -0.0039
     12 C         140.2846  141.3163  166.7216 C.ar    1  UNL1       -0.0203
     13 C         139.8328  140.2993  165.7158 C.ar    1  UNL1        0.0255
     14 C         140.1355  140.4983  164.2602 C.ar    1  UNL1        0.1444
     15 F         139.6837  139.4813  163.2544 F       1  UNL1       -0.2040
     16 C         140.8899  141.7142  163.8104 C.ar    1  UNL1        0.0839
     17 C         141.1926  141.9131  162.3548 C.ar    1  UNL1        0.2668
     18 O         140.7408  140.8961  161.3489 O.2     1  UNL1       -0.2665
     19 C         139.9819  141.1174  168.1772 C.3     1  UNL1        0.0224
     20 C         139.3145  140.3368  169.2704 C.3     1  UNL1        0.0047
     21 C         140.1251  141.5536  169.6052 C.3     1  UNL1        0.0047
     22 C         138.8988  144.7761  155.2068 C.ar    1  UNL1        0.2244
     23 N         138.5385  146.2143  155.4348 N.ar    1  UNL1       -0.1810
     24 C         139.1817  146.9805  156.5524 C.ar    1  UNL1        0.2174
     25 N         138.8214  148.4186  156.7804 N.pl3   1  UNL1       -0.3273
     26 N         140.1852  146.3086  157.4421 N.ar    1  UNL1       -0.1948
     27 C         140.5455  144.8705  157.2142 C.ar    1  UNL1        0.1678
     28 N         139.9023  144.1042  156.0965 N.ar    1  UNL1       -0.1943
     29 H         138.1628  148.8596  156.1964 H       1  UNL1        0.1452
     30 H         139.2436  148.9215  157.5139 H       1  UNL1        0.1452
     31 N         138.2556  144.0098  154.0892 N.pl3   1  UNL1       -0.2812
     32 H         138.3451  144.3251  153.1608 H       1  UNL1        0.1551
     33 C         136.8657  140.4277  154.6389 C.ar    1  UNL1        0.1309
     34 C         137.9712  141.3557  154.2307 C.ar    1  UNL1        0.0440
     35 C         137.4761  142.7631  154.3860 C.ar    1  UNL1        0.0701
     36 C         136.0645  142.7049  154.8901 C.ar    1  UNL1        0.0912
     37 N         135.6873  141.2615  155.0465 N.ar    1  UNL1       -0.3190
     38 C         134.3640  140.7431  155.5261 C.3     1  UNL1        0.0863
     39 C         133.5415  139.6448  156.1322 C.3     1  UNL1        0.0245
     40 C         132.8945  140.9433  155.7508 C.3     1  UNL1        0.0245
     41 N         136.9897  137.4303  154.6400 N.1     1  UNL1       -0.1893
     42 C         136.9277  138.9290  154.6395 C.1     1  UNL1        0.1180
     43 C         139.9401  144.4727  160.1254 C.3     1  UNL1        0.1651
     44 O         139.7678  145.9116  160.5130 O.3     1  UNL1       -0.3772
     45 H         140.3521  146.1176  161.2593 H       1  UNL1        0.2109
@<TRIPOS>BOND
     1    41    42    3
     2    42    33    1
     3    33    34   ar
     4    34    35   ar
     5    35    31    1
     6    31    22    1
     7    22    23   ar
     8    23    24   ar
     9    24    25    1
    10    24    26   ar
    11    26    27   ar
    12    27     1    1
    13     1     2   ar
    14     2     3   ar
    15     3     4   ar
    16     4     5   ar
    17     5     7    1
    18     7     8   ar
    19     8     9   ar
    20     9    10   ar
    21    10    11   ar
    22    11    12   ar
    23    12    19    1
    24    19    20    1
    25    20    21    1
    26    12    13   ar
    27    13    14   ar
    28    14    15    1
    29    14    16   ar
    30    16    17   ar
    31    17    18    2
    32     5     6   ar
    33     6    43    1
    34    43    44    1
    35    27    28   ar
    36    35    36   ar
    37    36    37   ar
    38    37    38    1
    39    38    39    1
    40    39    40    1
    41    37    33   ar
    42    40    38    1
    43    28    22   ar
    44     6     1   ar
    45    17     7   ar
    46    16    10   ar
    47    21    19    1
    48    31    32    1
    49    25    29    1
    50    25    30    1
    51    44    45    1
@<TRIPOS>MOLECULE
*****
 45 51 0 0 0
SMALL
GASTEIGER

@<TRIPOS>ATOM
      1 C         140.5224  140.9024  158.7884 C.ar    1  UNL1        0.0358
      2 C         139.3790  141.6470  158.1654 C.ar    1  UNL1        0.0029
      3 C         138.4338  142.4288  159.0288 C.ar    1  UNL1        0.0016
      4 C         138.6321  142.4660  160.5151 C.ar    1  UNL1        0.0174
      5 C         139.7755  141.7213  161.1382 C.ar    1  UNL1        0.0653
      6 C         140.7206  140.9395  160.2748 C.ar    1  UNL1        0.0261
      7 N         139.9736  141.7585  162.6246 N.ar    1  UNL1       -0.2733
      8 C         140.7860  142.8559  163.2457 C.ar    1  UNL1        0.0829
      9 C         140.9842  142.8930  164.7321 C.ar    1  UNL1        0.0193
     10 C         140.3700  141.8328  165.5973 C.ar    1  UNL1        0.0080
     11 C         140.5682  141.8699  167.0837 C.ar    1  UNL1       -0.0039
     12 C         139.9539  140.8097  167.9490 C.ar    1  UNL1       -0.0203
     13 C         139.1415  139.7123  167.3278 C.ar    1  UNL1        0.0255
     14 C         138.9434  139.6752  165.8415 C.ar    1  UNL1        0.1444
     15 F         138.1310  138.5778  165.2203 F       1  UNL1       -0.2040
     16 C         139.5576  140.7354  164.9762 C.ar    1  UNL1        0.0839
     17 C         139.3594  140.6983  163.4898 C.ar    1  UNL1        0.2668
     18 O         138.5470  139.6009  162.8687 O.2     1  UNL1       -0.2665
     19 C         140.1521  140.8468  169.4354 C.3     1  UNL1        0.0224
     20 C         140.4228  140.1356  170.7279 C.3     1  UNL1        0.0047
     21 C         140.2246  141.6224  170.7172 C.3     1  UNL1        0.0047
     22 C         141.9250  138.1303  156.3190 C.ar    1  UNL1        0.2244
     23 N         143.3581  138.5570  156.1983 N.ar    1  UNL1       -0.1810
     24 C         143.8458  139.7655  156.9411 C.ar    1  UNL1        0.2174
     25 N         145.2787  140.1922  156.8205 N.pl3   1  UNL1       -0.3273
     26 N         142.9005  140.5473  157.8045 N.ar    1  UNL1       -0.1948
     27 C         141.4676  140.1206  157.9250 C.ar    1  UNL1        0.1678
     28 N         140.9799  138.9121  157.1823 N.ar    1  UNL1       -0.1943
     29 H         145.8991  139.6791  156.2538 H       1  UNL1        0.1452
     30 H         145.5989  140.9853  157.3080 H       1  UNL1        0.1452
     31 N         141.4373  136.9218  155.5762 N.pl3   1  UNL1       -0.2812
     32 H         140.7471  137.0169  154.8806 H       1  UNL1        0.1551
     33 C         143.4078  133.8068  156.7925 C.ar    1  UNL1        0.1309
     34 C         143.2047  135.2922  156.7449 C.ar    1  UNL1        0.0440
     35 C         142.0011  135.5684  155.8933 C.ar    1  UNL1        0.0701
     36 C         141.4603  134.2538  155.4147 C.ar    1  UNL1        0.0912
     37 N         142.3297  133.1650  155.9703 N.ar    1  UNL1       -0.3190
     38 C         142.1521  131.6929  155.7437 C.3     1  UNL1        0.0863
     39 C         141.4205  130.5581  155.0902 C.3     1  UNL1        0.0245
     40 C         142.5762  130.2779  156.0046 C.3     1  UNL1        0.0245
     41 N         145.5874  132.3715  158.2720 N.1     1  UNL1       -0.1893
     42 C         144.4976  133.0891  157.5322 C.1     1  UNL1        0.1180
     43 C         141.8640  140.1949  160.8978 C.3     1  UNL1        0.1651
     44 O         143.2183  140.8344  160.9826 O.3     1  UNL1       -0.3772
     45 H         143.5735  140.9590  160.0886 H       1  UNL1        0.2109
@<TRIPOS>BOND
     1    41    42    3
     2    42    33    1
     3    33    34   ar
     4    34    35   ar
     5    35    31    1
     6    31    22    1
     7    22    23   ar
     8    23    24   ar
     9    24    25    1
    10    24    26   ar
    11    26    27   ar
    12    27     1    1
    13     1     2   ar
    14     2     3   ar
    15     3     4   ar
    16     4     5   ar
    17     5     7    1
    18     7     8   ar
    19     8     9   ar
    20     9    10   ar
    21    10    11   ar
    22    11    12   ar
    23    12    19    1
    24    19    20    1
    25    20    21    1
    26    12    13   ar
    27    13    14   ar
    28    14    15    1
    29    14    16   ar
    30    16    17   ar
    31    17    18    2
    32     5     6   ar
    33     6    43    1
    34    43    44    1
    35    27    28   ar
    36    35    36   ar
    37    36    37   ar
    38    37    38    1
    39    38    39    1
    40    39    40    1
    41    37    33   ar
    42    40    38    1
    43    28    22   ar
    44     6     1   ar
    45    17     7   ar
    46    16    10   ar
    47    21    19    1
    48    31    32    1
    49    25    29    1
    50    25    30    1
    51    44    45    1
@<TRIPOS>MOLECULE
*****
 45 51 0 0 0
SMALL
GASTEIGER

@<TRIPOS>ATOM
      1 C         139.9743  139.1055  158.0817 C.ar    1  UNL1        0.0358
      2 C         138.9712  140.0052  157.4226 C.ar    1  UNL1        0.0029
      3 C         138.0088  140.7954  158.2589 C.ar    1  UNL1        0.0016
      4 C         138.0495  140.6859  159.7544 C.ar    1  UNL1        0.0174
      5 C         139.0525  139.7862  160.4135 C.ar    1  UNL1        0.0653
      6 C         140.0149  138.9960  159.5772 C.ar    1  UNL1        0.0261
      7 N         139.0932  139.6767  161.9090 N.ar    1  UNL1       -0.2733
      8 C         138.6017  138.4303  162.5834 C.ar    1  UNL1        0.0829
      9 C         138.6424  138.3209  164.0788 C.ar    1  UNL1        0.0193
     10 C         139.1745  139.4579  164.8998 C.ar    1  UNL1        0.0080
     11 C         139.2152  139.3484  166.3953 C.ar    1  UNL1       -0.0039
     12 C         139.7473  140.4854  167.2163 C.ar    1  UNL1       -0.0203
     13 C         140.2388  141.7319  166.5419 C.ar    1  UNL1        0.0255
     14 C         140.1982  141.8413  165.0464 C.ar    1  UNL1        0.1444
     15 F         140.6896  143.0877  164.3720 F       1  UNL1       -0.2040
     16 C         139.6660  140.7043  164.2254 C.ar    1  UNL1        0.0839
     17 C         139.6253  140.8137  162.7300 C.ar    1  UNL1        0.2668
     18 O         140.1168  142.0602  162.0555 O.2     1  UNL1       -0.2665
     19 C         139.7880  140.3760  168.7118 C.3     1  UNL1        0.0224
     20 C         139.1144  140.5232  170.0438 C.3     1  UNL1        0.0047
     21 C         140.5322  140.0392  169.9699 C.3     1  UNL1        0.0047
     22 C         141.4762  136.2136  155.8167 C.ar    1  UNL1        0.2244
     23 N         142.8614  136.7349  155.5728 N.ar    1  UNL1       -0.1810
     24 C         143.2842  138.0465  156.1653 C.ar    1  UNL1        0.2174
     25 N         144.6694  138.5679  155.9215 N.pl3   1  UNL1       -0.3273
     26 N         142.3218  138.8367  157.0016 N.ar    1  UNL1       -0.1948
     27 C         140.9366  138.3153  157.2454 C.ar    1  UNL1        0.1678
     28 N         140.5138  137.0037  156.6529 N.ar    1  UNL1       -0.1943
     29 H         145.3010  138.0493  155.3726 H       1  UNL1        0.1452
     30 H         144.9468  139.4287  156.3104 H       1  UNL1        0.1452
     31 N         141.0534  134.9020  155.2242 N.pl3   1  UNL1       -0.2812
     32 H         140.1938  134.8305  154.7496 H       1  UNL1        0.1551
     33 C         143.3485  131.9609  156.2960 C.ar    1  UNL1        0.1309
     34 C         142.5316  133.1740  156.6293 C.ar    1  UNL1        0.0440
     35 C         141.9404  133.6993  155.3547 C.ar    1  UNL1        0.0701
     36 C         142.3919  132.8109  154.2337 C.ar    1  UNL1        0.0912
     37 N         143.2621  131.7365  154.8154 N.ar    1  UNL1       -0.3190
     38 C         143.9289  130.6316  154.0507 C.3     1  UNL1        0.0863
     39 C         144.8156  129.4221  154.0234 C.3     1  UNL1        0.0245
     40 C         144.1972  129.9276  152.7537 C.3     1  UNL1        0.0245
     41 N         144.8851  130.2790  158.2478 N.1     1  UNL1       -0.1893
     42 C         144.1168  131.1200  157.2719 C.1     1  UNL1        0.1180
     43 C         141.0180  138.0963  160.2363 C.3     1  UNL1        0.1651
     44 O         142.4707  138.4699  160.2423 O.3     1  UNL1       -0.3772
     45 H         142.8119  138.4558  159.3344 H       1  UNL1        0.2109
@<TRIPOS>BOND
     1    41    42    3
     2    42    33    1
     3    33    34   ar
     4    34    35   ar
     5    35    31    1
     6    31    22    1
     7    22    23   ar
     8    23    24   ar
     9    24    25    1
    10    24    26   ar
    11    26    27   ar
    12    27     1    1
    13     1     2   ar
    14     2     3   ar
    15     3     4   ar
    16     4     5   ar
    17     5     7    1
    18     7     8   ar
    19     8     9   ar
    20     9    10   ar
    21    10    11   ar
    22    11    12   ar
    23    12    19    1
    24    19    20    1
    25    20    21    1
    26    12    13   ar
    27    13    14   ar
    28    14    15    1
    29    14    16   ar
    30    16    17   ar
    31    17    18    2
    32     5     6   ar
    33     6    43    1
    34    43    44    1
    35    27    28   ar
    36    35    36   ar
    37    36    37   ar
    38    37    38    1
    39    38    39    1
    40    39    40    1
    41    37    33   ar
    42    40    38    1
    43    28    22   ar
    44     6     1   ar
    45    17     7   ar
    46    16    10   ar
    47    21    19    1
    48    31    32    1
    49    25    29    1
    50    25    30    1
    51    44    45    1
@<TRIPOS>MOLECULE
*****
 45 51 0 0 0
SMALL
GASTEIGER

@<TRIPOS>ATOM
      1 C         141.6142  141.0758  160.3155 C.ar    1  UNL1        0.0358
      2 C         142.8686  141.8981  160.3386 C.ar    1  UNL1        0.0029
      3 C         143.9469  141.6497  159.3258 C.ar    1  UNL1        0.0016
      4 C         143.7708  140.5792  158.2901 C.ar    1  UNL1        0.0174
      5 C         142.5165  139.7569  158.2670 C.ar    1  UNL1        0.0653
      6 C         141.4382  140.0052  159.2797 C.ar    1  UNL1        0.0261
      7 N         142.3405  138.6863  157.2311 N.ar    1  UNL1       -0.2733
      8 C         141.7985  139.0351  155.8767 C.ar    1  UNL1        0.0829
      9 C         141.6225  137.9645  154.8409 C.ar    1  UNL1        0.0193
     10 C         141.9885  136.5452  155.1596 C.ar    1  UNL1        0.0080
     11 C         141.8124  135.4746  154.1238 C.ar    1  UNL1       -0.0039
     12 C         142.1784  134.0552  154.4425 C.ar    1  UNL1       -0.0203
     13 C         142.7203  133.7065  155.7970 C.ar    1  UNL1        0.0255
     14 C         142.8963  134.7771  156.8328 C.ar    1  UNL1        0.1444
     15 F         143.4382  134.4283  158.1873 F       1  UNL1       -0.2040
     16 C         142.5304  136.1964  156.5141 C.ar    1  UNL1        0.0839
     17 C         142.7064  137.2670  157.5499 C.ar    1  UNL1        0.2668
     18 O         143.2483  136.9182  158.9044 O.2     1  UNL1       -0.2665
     19 C         142.0024  132.9847  153.4067 C.3     1  UNL1        0.0224
     20 C         141.7164  131.5558  153.0509 C.3     1  UNL1        0.0047
     21 C         141.9834  132.5592  151.9684 C.3     1  UNL1        0.0047
     22 C         139.2704  140.6213  163.4856 C.ar    1  UNL1        0.2244
     23 N         138.3793  141.8208  163.3537 N.ar    1  UNL1       -0.1810
     24 C         138.5666  142.7719  162.2090 C.ar    1  UNL1        0.2174
     25 N         137.6756  143.9713  162.0770 N.pl3   1  UNL1       -0.3273
     26 N         139.6450  142.5236  161.1962 N.ar    1  UNL1       -0.1948
     27 C         140.5360  141.3241  161.3282 C.ar    1  UNL1        0.1678
     28 N         140.3487  140.3730  162.4729 N.ar    1  UNL1       -0.1943
     29 H         136.9679  144.1343  162.7417 H       1  UNL1        0.1452
     30 H         137.7986  144.5956  161.3257 H       1  UNL1        0.1452
     31 N         139.0831  139.6702  164.6303 N.pl3   1  UNL1       -0.2812
     32 H         138.6303  138.8082  164.4850 H       1  UNL1        0.1551
     33 C         139.8516  140.1319  168.4068 C.ar    1  UNL1        0.1309
     34 C         139.0599  139.5042  167.2981 C.ar    1  UNL1        0.0440
     35 C         139.5857  140.0325  165.9964 C.ar    1  UNL1        0.0701
     36 C         140.7024  140.9868  166.3006 C.ar    1  UNL1        0.0912
     37 N         140.8667  141.0482  167.7903 N.ar    1  UNL1       -0.3190
     38 C         141.8700  141.8799  168.5331 C.3     1  UNL1        0.0863
     39 C         142.1946  142.8568  169.6242 C.3     1  UNL1        0.0245
     40 C         143.2830  142.3435  168.7287 C.3     1  UNL1        0.0245
     41 N         139.4715  139.6409  171.3418 N.1     1  UNL1       -0.1893
     42 C         139.6616  139.8864  169.8743 C.1     1  UNL1        0.1180
     43 C         140.1839  139.1830  159.2566 C.3     1  UNL1        0.1651
     44 O         139.8854  138.2384  160.3831 O.3     1  UNL1       -0.3772
     45 H         140.5454  137.5276  160.3924 H       1  UNL1        0.2109
@<TRIPOS>BOND
     1    41    42    3
     2    42    33    1
     3    33    34   ar
     4    34    35   ar
     5    35    31    1
     6    31    22    1
     7    22    23   ar
     8    23    24   ar
     9    24    25    1
    10    24    26   ar
    11    26    27   ar
    12    27     1    1
    13     1     2   ar
    14     2     3   ar
    15     3     4   ar
    16     4     5   ar
    17     5     7    1
    18     7     8   ar
    19     8     9   ar
    20     9    10   ar
    21    10    11   ar
    22    11    12   ar
    23    12    19    1
    24    19    20    1
    25    20    21    1
    26    12    13   ar
    27    13    14   ar
    28    14    15    1
    29    14    16   ar
    30    16    17   ar
    31    17    18    2
    32     5     6   ar
    33     6    43    1
    34    43    44    1
    35    27    28   ar
    36    35    36   ar
    37    36    37   ar
    38    37    38    1
    39    38    39    1
    40    39    40    1
    41    37    33   ar
    42    40    38    1
    43    28    22   ar
    44     6     1   ar
    45    17     7   ar
    46    16    10   ar
    47    21    19    1
    48    31    32    1
    49    25    29    1
    50    25    30    1
    51    44    45    1
@<TRIPOS>MOLECULE
*****
 45 51 0 0 0
SMALL
GASTEIGER

@<TRIPOS>ATOM
      1 C         139.3437  142.6537  158.2140 C.ar    1  UNL1        0.0358
      2 C         138.5626  141.4455  157.7896 C.ar    1  UNL1        0.0029
      3 C         137.9447  140.5509  158.8230 C.ar    1  UNL1        0.0016
      4 C         138.1078  140.8645  160.2807 C.ar    1  UNL1        0.0174
      5 C         138.8889  142.0727  160.7051 C.ar    1  UNL1        0.0653
      6 C         139.5068  142.9673  159.6718 C.ar    1  UNL1        0.0261
      7 N         139.0520  142.3863  162.1629 N.ar    1  UNL1       -0.2733
      8 C         138.1245  143.3587  162.8292 C.ar    1  UNL1        0.0829
      9 C         138.2876  143.6723  164.2870 C.ar    1  UNL1        0.0193
     10 C         139.3783  143.0134  165.0784 C.ar    1  UNL1        0.0080
     11 C         139.5414  143.3270  166.5362 C.ar    1  UNL1       -0.0039
     12 C         140.6321  142.6681  167.3276 C.ar    1  UNL1       -0.0203
     13 C         141.5597  141.6956  166.6611 C.ar    1  UNL1        0.0255
     14 C         141.3965  141.3821  165.2034 C.ar    1  UNL1        0.1444
     15 F         142.3240  140.4096  164.5371 F       1  UNL1       -0.2040
     16 C         140.3058  142.0410  164.4120 C.ar    1  UNL1        0.0839
     17 C         140.1427  141.7274  162.9543 C.ar    1  UNL1        0.2668
     18 O         141.0702  140.7549  162.2879 O.2     1  UNL1       -0.2665
     19 C         140.7953  142.9816  168.7853 C.3     1  UNL1        0.0224
     20 C         141.6812  143.2720  169.9604 C.3     1  UNL1        0.0047
     21 C         140.1919  143.2343  170.1351 C.3     1  UNL1        0.0047
     22 C         139.7277  145.4260  155.4003 C.ar    1  UNL1        0.2244
     23 N         141.1975  145.3376  155.1140 N.ar    1  UNL1       -0.1810
     24 C         142.0493  144.3546  155.8610 C.ar    1  UNL1        0.2174
     25 N         143.5191  144.2661  155.5747 N.pl3   1  UNL1       -0.3273
     26 N         141.4313  143.4599  156.8944 N.ar    1  UNL1       -0.1948
     27 C         139.9616  143.5484  157.1807 C.ar    1  UNL1        0.1678
     28 N         139.1098  144.5314  156.4336 N.ar    1  UNL1       -0.1943
     29 H         143.9247  144.8533  154.8965 H       1  UNL1        0.1452
     30 H         144.0781  143.6209  156.0650 H       1  UNL1        0.1452
     31 N         138.8759  146.4091  154.6533 N.pl3   1  UNL1       -0.2812
     32 H         138.0448  146.1097  154.2186 H       1  UNL1        0.1551
     33 C         139.4177  150.2404  154.9585 C.ar    1  UNL1        0.1309
     34 C         138.7082  148.9815  155.3604 C.ar    1  UNL1        0.0440
     35 C         139.2904  147.8482  154.5686 C.ar    1  UNL1        0.0701
     36 C         140.3597  148.4068  153.6773 C.ar    1  UNL1        0.0912
     37 N         140.4384  149.8853  153.9183 N.ar    1  UNL1       -0.3190
     38 C         141.3737  150.8408  153.2383 C.3     1  UNL1        0.0863
     39 C         141.7299  152.2386  152.8270 C.3     1  UNL1        0.0245
     40 C         142.6373  151.0981  152.4721 C.3     1  UNL1        0.0245
     41 N         138.8883  152.9864  156.0444 N.1     1  UNL1       -0.1893
     42 C         139.1530  151.6134  155.5014 C.1     1  UNL1        0.1180
     43 C         140.2879  144.1756  160.0962 C.3     1  UNL1        0.1651
     44 O         139.5781  145.4668  160.3773 O.3     1  UNL1       -0.3772
     45 H         139.1871  145.8061  159.5570 H       1  UNL1        0.2109
@<TRIPOS>BOND
     1    41    42    3
     2    42    33    1
     3    33    34   ar
     4    34    35   ar
     5    35    31    1
     6    31    22    1
     7    22    23   ar
     8    23    24   ar
     9    24    25    1
    10    24    26   ar
    11    26    27   ar
    12    27     1    1
    13     1     2   ar
    14     2     3   ar
    15     3     4   ar
    16     4     5   ar
    17     5     7    1
    18     7     8   ar
    19     8     9   ar
    20     9    10   ar
    21    10    11   ar
    22    11    12   ar
    23    12    19    1
    24    19    20    1
    25    20    21    1
    26    12    13   ar
    27    13    14   ar
    28    14    15    1
    29    14    16   ar
    30    16    17   ar
    31    17    18    2
    32     5     6   ar
    33     6    43    1
    34    43    44    1
    35    27    28   ar
    36    35    36   ar
    37    36    37   ar
    38    37    38    1
    39    38    39    1
    40    39    40    1
    41    37    33   ar
    42    40    38    1
    43    28    22   ar
    44     6     1   ar
    45    17     7   ar
    46    16    10   ar
    47    21    19    1
    48    31    32    1
    49    25    29    1
    50    25    30    1
    51    44    45    1
