@<TRIPOS>MOLECULE
*****
 38 42 0 0 0
SMALL
GASTEIGER

@<TRIPOS>ATOM
      1 C         139.5012  141.8096  162.9997 C.ar    1  UNL1        0.1651
      2 N         140.4913  142.5151  163.8784 N.ar    1  UNL1       -0.2121
      3 C         140.6187  142.1317  165.3230 C.ar    1  UNL1        0.1318
      4 C         139.7560  141.0428  165.8889 C.ar    1  UNL1        0.0491
      5 C         139.8835  140.6594  167.3334 C.ar    1  UNL1        0.0041
      6 C         139.0209  139.5706  167.8993 C.ar    1  UNL1        0.0002
      7 C         138.0308  138.8651  167.0207 C.ar    1  UNL1        0.0015
      8 C         137.9034  139.2485  165.5761 C.ar    1  UNL1        0.0192
      9 C         138.7660  140.3374  165.0102 C.ar    1  UNL1        0.0856
     10 N         138.6385  140.7208  163.5656 N.ar    1  UNL1       -0.2264
     11 C         139.9043  143.8263  159.6055 C.ar    1  UNL1        0.0710
     12 C         139.1189  142.9598  158.6661 C.ar    1  UNL1        0.1135
     13 N         138.4610  141.7101  159.1712 N.ar    1  UNL1       -0.2409
     14 C         138.5884  141.3266  160.6157 C.ar    1  UNL1        0.1020
     15 C         139.3737  142.1930  161.5552 C.ar    1  UNL1        0.0562
     16 C         140.0317  143.4429  161.0501 C.ar    1  UNL1        0.0209
     17 N         142.4905  146.2370  157.8028 N.am    1  UNL1       -0.3131
     18 C         141.8326  144.9871  158.3079 C.2     1  UNL1        0.3014
     19 O         142.4452  143.6484  158.0206 O.2     1  UNL1       -0.2527
     20 N         140.5622  145.0760  159.1004 N.am    1  UNL1       -0.2672
     21 H         143.3244  146.1786  157.2827 H       1  UNL1        0.1465
     22 H         142.0885  147.1156  157.9914 H       1  UNL1        0.1465
     23 H         140.1601  145.9547  159.2890 H       1  UNL1        0.1564
     24 C         140.8736  141.3649  168.2121 C.ar    1  UNL1        0.0001
     25 C         142.2462  140.7919  168.4058 C.ar    1  UNL1        0.0000
     26 C         143.2364  141.4973  169.2845 C.ar    1  UNL1        0.0000
     27 C         142.8538  142.7758  169.9694 C.ar    1  UNL1        0.0000
     28 C         141.4811  143.3488  169.7757 C.ar    1  UNL1        0.0000
     29 C         140.4911  142.6434  168.8970 C.ar    1  UNL1        0.0000
     30 N         141.6088  142.8371  166.2017 N.pl3   1  UNL1       -0.3131
     31 H         141.3153  143.2358  167.0526 H       1  UNL1        0.1485
     32 C         143.0462  142.9351  165.7838 C.3     1  UNL1        0.1348
     33 C         143.6097  141.9534  164.7996 C.ar    1  UNL1        0.0788
     34 C         143.7210  140.5033  165.1667 C.ar    1  UNL1        0.0165
     35 C         144.2845  139.5216  164.1825 C.ar    1  UNL1        0.0029
     36 C         144.7367  139.9900  162.8311 C.ar    1  UNL1        0.0207
     37 C         144.6254  141.4402  162.4640 C.ar    1  UNL1        0.0985
     38 N         144.0619  142.4218  163.4482 N.ar    1  UNL1       -0.2464
@<TRIPOS>BOND
     1    17    18   am
     2    18    19    2
     3    18    20   am
     4    20    11    1
     5    11    12   ar
     6    12    13   ar
     7    13    14   ar
     8    14    15   ar
     9    15     1    1
    10     1     2   ar
    11     2     3   ar
    12     3    30    1
    13    30    32    1
    14    32    33    1
    15    33    34   ar
    16    34    35   ar
    17    35    36   ar
    18    36    37   ar
    19    37    38   ar
    20     3     4   ar
    21     4     5   ar
    22     5    24    1
    23    24    25   ar
    24    25    26   ar
    25    26    27   ar
    26    27    28   ar
    27    28    29   ar
    28     5     6   ar
    29     6     7   ar
    30     7     8   ar
    31     8     9   ar
    32     9    10   ar
    33    15    16   ar
    34    16    11   ar
    35    10     1   ar
    36    38    33   ar
    37     9     4   ar
    38    29    24   ar
    39    17    21    1
    40    17    22    1
    41    20    23    1
    42    30    31    1
@<TRIPOS>MOLECULE
*****
 38 42 0 0 0
SMALL
GASTEIGER

@<TRIPOS>ATOM
      1 C         143.0761  140.8216  160.9269 C.ar    1  UNL1        0.1651
      2 N         141.6597  140.6292  161.3819 N.ar    1  UNL1       -0.2121
      3 C         141.3792  140.0286  162.7275 C.ar    1  UNL1        0.1318
      4 C         142.5152  139.6204  163.6182 C.ar    1  UNL1        0.0491
      5 C         142.2347  139.0199  164.9638 C.ar    1  UNL1        0.0041
      6 C         143.3705  138.6117  165.8544 C.ar    1  UNL1        0.0002
      7 C         144.7868  138.8041  165.3994 C.ar    1  UNL1        0.0015
      8 C         145.0673  139.4046  164.0538 C.ar    1  UNL1        0.0192
      9 C         143.9314  139.8128  163.1632 C.ar    1  UNL1        0.0856
     10 N         144.2119  140.4134  161.8176 N.ar    1  UNL1       -0.2264
     11 C         143.2415  143.4413  157.9503 C.ar    1  UNL1        0.0710
     12 C         143.9175  142.6233  156.8901 C.ar    1  UNL1        0.1135
     13 N         144.3131  141.2048  157.1755 N.ar    1  UNL1       -0.2409
     14 C         144.0326  140.6043  158.5211 C.ar    1  UNL1        0.1020
     15 C         143.3566  141.4221  159.5813 C.ar    1  UNL1        0.0562
     16 C         142.9610  142.8407  159.2959 C.ar    1  UNL1        0.0209
     17 N         141.0915  146.5800  156.8208 N.am    1  UNL1       -0.3131
     18 C         141.4870  145.1615  157.1062 C.2     1  UNL1        0.3014
     19 O         140.5236  144.0448  156.8330 O.2     1  UNL1       -0.2527
     20 N         142.8460  144.8597  157.6649 N.am    1  UNL1       -0.2672
     21 H         140.1996  146.7781  156.4541 H       1  UNL1        0.1465
     22 H         141.7239  147.3130  157.0002 H       1  UNL1        0.1465
     23 H         143.4784  145.5926  157.8443 H       1  UNL1        0.1564
     24 C         140.8183  138.8275  165.4187 C.ar    1  UNL1        0.0001
     25 C         140.1639  139.8582  166.2902 C.ar    1  UNL1        0.0000
     26 C         138.7475  139.6658  166.7451 C.ar    1  UNL1        0.0000
     27 C         137.9856  138.4427  166.3286 C.ar    1  UNL1        0.0000
     28 C         138.6400  137.4120  165.4571 C.ar    1  UNL1        0.0000
     29 C         140.0563  137.6044  165.0022 C.ar    1  UNL1        0.0000
     30 N         139.9629  139.8363  163.1825 N.pl3   1  UNL1       -0.3131
     31 H         139.7101  139.0213  163.6736 H       1  UNL1        0.1485
     32 C         138.9319  140.8856  162.8892 C.3     1  UNL1        0.1348
     33 C         138.9575  142.1899  163.6295 C.ar    1  UNL1        0.0788
     34 C         137.6719  142.8446  164.0401 C.ar    1  UNL1        0.0165
     35 C         137.6976  144.1490  164.7804 C.ar    1  UNL1        0.0029
     36 C         139.0088  144.7985  165.1102 C.ar    1  UNL1        0.0207
     37 C         140.2944  144.1437  164.6997 C.ar    1  UNL1        0.0985
     38 N         140.2687  142.8394  163.9593 N.ar    1  UNL1       -0.2464
@<TRIPOS>BOND
     1    17    18   am
     2    18    19    2
     3    18    20   am
     4    20    11    1
     5    11    12   ar
     6    12    13   ar
     7    13    14   ar
     8    14    15   ar
     9    15     1    1
    10     1     2   ar
    11     2     3   ar
    12     3    30    1
    13    30    32    1
    14    32    33    1
    15    33    34   ar
    16    34    35   ar
    17    35    36   ar
    18    36    37   ar
    19    37    38   ar
    20     3     4   ar
    21     4     5   ar
    22     5    24    1
    23    24    25   ar
    24    25    26   ar
    25    26    27   ar
    26    27    28   ar
    27    28    29   ar
    28     5     6   ar
    29     6     7   ar
    30     7     8   ar
    31     8     9   ar
    32     9    10   ar
    33    15    16   ar
    34    16    11   ar
    35    10     1   ar
    36    38    33   ar
    37     9     4   ar
    38    29    24   ar
    39    17    21    1
    40    17    22    1
    41    20    23    1
    42    30    31    1
@<TRIPOS>MOLECULE
*****
 38 42 0 0 0
SMALL
GASTEIGER

@<TRIPOS>ATOM
      1 C         139.2294  140.0109  158.9476 C.ar    1  UNL1        0.1651
      2 N         138.4104  140.1680  160.1945 N.ar    1  UNL1       -0.2121
      3 C         138.9595  139.7140  161.5145 C.ar    1  UNL1        0.1318
      4 C         140.3275  139.1030  161.5876 C.ar    1  UNL1        0.0491
      5 C         140.8765  138.6491  162.9077 C.ar    1  UNL1        0.0041
      6 C         142.2445  138.0381  162.9808 C.ar    1  UNL1        0.0002
      7 C         143.0634  137.8811  161.7340 C.ar    1  UNL1        0.0015
      8 C         142.5144  138.3350  160.4140 C.ar    1  UNL1        0.0192
      9 C         141.1464  138.9460  160.3408 C.ar    1  UNL1        0.0856
     10 N         140.5974  139.4000  159.0208 N.ar    1  UNL1       -0.2264
     11 C         136.6637  141.1911  156.1594 C.ar    1  UNL1        0.0710
     12 C         137.5823  141.3728  154.9875 C.ar    1  UNL1        0.1135
     13 N         139.0499  141.1006  155.1357 N.ar    1  UNL1       -0.2409
     14 C         139.5989  140.6466  156.4557 C.ar    1  UNL1        0.1020
     15 C         138.6804  140.4649  157.6276 C.ar    1  UNL1        0.0562
     16 C         137.2127  140.7371  157.4794 C.ar    1  UNL1        0.0209
     17 N         132.7800  140.6063  155.5890 N.am    1  UNL1       -0.3131
     18 C         134.2477  140.3340  155.7373 C.2     1  UNL1        0.3014
     19 O         134.7668  138.9323  155.6116 O.2     1  UNL1       -0.2527
     20 N         135.1961  141.4633  156.0111 N.am    1  UNL1       -0.2672
     21 H         132.1575  139.8650  155.4093 H       1  UNL1        0.1465
     22 H         132.4392  141.5262  155.6715 H       1  UNL1        0.1465
     23 H         134.8553  142.3833  156.0936 H       1  UNL1        0.1564
     24 C         140.0576  138.8061  164.1546 C.ar    1  UNL1        0.0001
     25 C         140.1852  140.0493  164.9841 C.ar    1  UNL1        0.0000
     26 C         139.3662  140.2063  166.2310 C.ar    1  UNL1        0.0000
     27 C         138.4196  139.1201  166.6483 C.ar    1  UNL1        0.0000
     28 C         138.2920  137.8769  165.8187 C.ar    1  UNL1        0.0000
     29 C         139.1110  137.7199  164.5719 C.ar    1  UNL1        0.0000
     30 N         138.1406  139.8710  162.7614 N.pl3   1  UNL1       -0.3131
     31 H         138.1645  139.1747  163.4570 H       1  UNL1        0.1485
     32 C         137.2851  141.0889  162.9485 C.3     1  UNL1        0.1348
     33 C         137.9235  142.4208  163.2102 C.ar    1  UNL1        0.0788
     34 C         137.8774  143.0172  164.5857 C.ar    1  UNL1        0.0165
     35 C         138.5157  144.3492  164.8475 C.ar    1  UNL1        0.0029
     36 C         139.2002  145.0847  163.7337 C.ar    1  UNL1        0.0207
     37 C         139.2462  144.4882  162.3581 C.ar    1  UNL1        0.0985
     38 N         138.6079  143.1563  162.0964 N.ar    1  UNL1       -0.2464
@<TRIPOS>BOND
     1    17    18   am
     2    18    19    2
     3    18    20   am
     4    20    11    1
     5    11    12   ar
     6    12    13   ar
     7    13    14   ar
     8    14    15   ar
     9    15     1    1
    10     1     2   ar
    11     2     3   ar
    12     3    30    1
    13    30    32    1
    14    32    33    1
    15    33    34   ar
    16    34    35   ar
    17    35    36   ar
    18    36    37   ar
    19    37    38   ar
    20     3     4   ar
    21     4     5   ar
    22     5    24    1
    23    24    25   ar
    24    25    26   ar
    25    26    27   ar
    26    27    28   ar
    27    28    29   ar
    28     5     6   ar
    29     6     7   ar
    30     7     8   ar
    31     8     9   ar
    32     9    10   ar
    33    15    16   ar
    34    16    11   ar
    35    10     1   ar
    36    38    33   ar
    37     9     4   ar
    38    29    24   ar
    39    17    21    1
    40    17    22    1
    41    20    23    1
    42    30    31    1
@<TRIPOS>MOLECULE
*****
 38 42 0 0 0
SMALL
GASTEIGER

@<TRIPOS>ATOM
      1 C         140.6342  138.9794  160.4334 C.ar    1  UNL1        0.1651
      2 N         140.5355  140.4394  160.7633 N.ar    1  UNL1       -0.2121
      3 C         139.9864  140.8731  162.0900 C.ar    1  UNL1        0.1318
      4 C         139.5359  139.8468  163.0870 C.ar    1  UNL1        0.0491
      5 C         138.9868  140.2805  164.4138 C.ar    1  UNL1        0.0041
      6 C         138.5364  139.2542  165.4107 C.ar    1  UNL1        0.0002
      7 C         138.6351  137.7943  165.0809 C.ar    1  UNL1        0.0015
      8 C         139.1842  137.3606  163.7541 C.ar    1  UNL1        0.0192
      9 C         139.6346  138.3869  162.7571 C.ar    1  UNL1        0.0856
     10 N         140.1837  137.9532  161.4303 N.ar    1  UNL1       -0.2264
     11 C         140.9788  138.4192  156.5196 C.ar    1  UNL1        0.0710
     12 C         142.2815  137.6783  156.4530 C.ar    1  UNL1        0.1135
     13 N         143.0349  137.3712  157.7131 N.ar    1  UNL1       -0.2409
     14 C         142.4858  137.8049  159.0399 C.ar    1  UNL1        0.1020
     15 C         141.1833  138.5457  159.1066 C.ar    1  UNL1        0.0562
     16 C         140.4297  138.8528  157.8464 C.ar    1  UNL1        0.0209
     17 N         138.2383  138.2530  153.6540 N.am    1  UNL1       -0.3131
     18 C         138.9918  137.9458  154.9142 C.2     1  UNL1        0.3014
     19 O         138.5117  136.8583  155.8289 O.2     1  UNL1       -0.2527
     20 N         140.2254  138.7263  155.2595 N.am    1  UNL1       -0.2672
     21 H         137.4287  137.7408  153.4273 H       1  UNL1        0.1465
     22 H         138.5534  138.9668  153.0536 H       1  UNL1        0.1465
     23 H         140.5405  139.4400  154.6591 H       1  UNL1        0.1564
     24 C         138.8882  141.7405  164.7436 C.ar    1  UNL1        0.0001
     25 C         139.9560  142.3971  165.5673 C.ar    1  UNL1        0.0000
     26 C         139.8574  143.8571  165.8972 C.ar    1  UNL1        0.0000
     27 C         138.6909  144.6604  165.4033 C.ar    1  UNL1        0.0000
     28 C         137.6230  144.0037  164.5796 C.ar    1  UNL1        0.0000
     29 C         137.7217  142.5438  164.2498 C.ar    1  UNL1        0.0000
     30 N         139.8877  142.3330  162.4199 N.pl3   1  UNL1       -0.3131
     31 H         139.0937  142.6794  162.8876 H       1  UNL1        0.1485
     32 C         140.9989  143.2652  162.0372 C.3     1  UNL1        0.1348
     33 C         142.1384  143.5023  162.9835 C.ar    1  UNL1        0.0788
     34 C         142.5071  144.9018  163.3776 C.ar    1  UNL1        0.0165
     35 C         143.6466  145.1389  164.3239 C.ar    1  UNL1        0.0029
     36 C         144.4173  143.9765  164.8761 C.ar    1  UNL1        0.0207
     37 C         144.0484  142.5770  164.4819 C.ar    1  UNL1        0.0985
     38 N         142.9090  142.3399  163.5357 N.ar    1  UNL1       -0.2464
@<TRIPOS>BOND
     1    17    18   am
     2    18    19    2
     3    18    20   am
     4    20    11    1
     5    11    12   ar
     6    12    13   ar
     7    13    14   ar
     8    14    15   ar
     9    15     1    1
    10     1     2   ar
    11     2     3   ar
    12     3    30    1
    13    30    32    1
    14    32    33    1
    15    33    34   ar
    16    34    35   ar
    17    35    36   ar
    18    36    37   ar
    19    37    38   ar
    20     3     4   ar
    21     4     5   ar
    22     5    24    1
    23    24    25   ar
    24    25    26   ar
    25    26    27   ar
    26    27    28   ar
    27    28    29   ar
    28     5     6   ar
    29     6     7   ar
    30     7     8   ar
    31     8     9   ar
    32     9    10   ar
    33    15    16   ar
    34    16    11   ar
    35    10     1   ar
    36    38    33   ar
    37     9     4   ar
    38    29    24   ar
    39    17    21    1
    40    17    22    1
    41    20    23    1
    42    30    31    1
@<TRIPOS>MOLECULE
*****
 38 42 0 0 0
SMALL
GASTEIGER

@<TRIPOS>ATOM
      1 C         140.3170  143.3377  159.7998 C.ar    1  UNL1        0.1651
      2 N         140.7768  141.9668  160.1991 N.ar    1  UNL1       -0.2121
      3 C         140.3316  141.3770  161.5044 C.ar    1  UNL1        0.1318
      4 C         139.4266  142.1581  162.4105 C.ar    1  UNL1        0.0491
      5 C         138.9814  141.5682  163.7158 C.ar    1  UNL1        0.0041
      6 C         138.0764  142.3492  164.6219 C.ar    1  UNL1        0.0002
      7 C         137.6166  143.7200  164.2227 C.ar    1  UNL1        0.0015
      8 C         138.0618  144.3098  162.9174 C.ar    1  UNL1        0.0192
      9 C         138.9668  143.5289  162.0113 C.ar    1  UNL1        0.0856
     10 N         139.4120  144.1187  160.7059 N.ar    1  UNL1       -0.2264
     11 C         140.7274  145.8780  156.7784 C.ar    1  UNL1        0.0710
     12 C         141.6526  145.1073  155.8839 C.ar    1  UNL1        0.1135
     13 N         142.1325  143.7468  156.2946 N.ar    1  UNL1       -0.2409
     14 C         141.6873  143.1570  157.6000 C.ar    1  UNL1        0.1020
     15 C         140.7622  143.9276  158.4945 C.ar    1  UNL1        0.0562
     16 C         140.2822  145.2881  158.0838 C.ar    1  UNL1        0.0209
     17 N         138.4732  148.7447  155.2132 N.am    1  UNL1       -0.3131
     18 C         138.9530  147.3842  155.6239 C.2     1  UNL1        0.3014
     19 O         138.1385  146.1695  155.2910 O.2     1  UNL1       -0.2527
     20 N         140.2475  147.2384  156.3677 N.am    1  UNL1       -0.2672
     21 H         137.6236  148.8404  154.7250 H       1  UNL1        0.1465
     22 H         139.0078  149.5420  155.4317 H       1  UNL1        0.1465
     23 H         140.7821  148.0357  156.5862 H       1  UNL1        0.1564
     24 C         139.4412  140.1973  164.1150 C.ar    1  UNL1        0.0001
     25 C         140.6634  140.0354  164.9693 C.ar    1  UNL1        0.0000
     26 C         141.1232  138.6645  165.3686 C.ar    1  UNL1        0.0000
     27 C         140.3607  137.4556  164.9134 C.ar    1  UNL1        0.0000
     28 C         139.1385  137.6176  164.0590 C.ar    1  UNL1        0.0000
     29 C         138.6787  138.9884  163.6599 C.ar    1  UNL1        0.0000
     30 N         140.7913  140.0062  161.9036 N.pl3   1  UNL1       -0.3131
     31 H         140.1799  139.4024  162.3841 H       1  UNL1        0.1485
     32 C         142.1827  139.5552  161.5707 C.3     1  UNL1        0.1348
     33 C         143.3578  140.1659  162.2750 C.ar    1  UNL1        0.0788
     34 C         143.9976  139.4487  163.4266 C.ar    1  UNL1        0.0165
     35 C         145.1728  140.0595  164.1310 C.ar    1  UNL1        0.0029
     36 C         145.7080  141.3875  163.6837 C.ar    1  UNL1        0.0207
     37 C         145.0681  142.1047  162.5321 C.ar    1  UNL1        0.0985
     38 N         143.8930  141.4939  161.8278 N.ar    1  UNL1       -0.2464
@<TRIPOS>BOND
     1    17    18   am
     2    18    19    2
     3    18    20   am
     4    20    11    1
     5    11    12   ar
     6    12    13   ar
     7    13    14   ar
     8    14    15   ar
     9    15     1    1
    10     1     2   ar
    11     2     3   ar
    12     3    30    1
    13    30    32    1
    14    32    33    1
    15    33    34   ar
    16    34    35   ar
    17    35    36   ar
    18    36    37   ar
    19    37    38   ar
    20     3     4   ar
    21     4     5   ar
    22     5    24    1
    23    24    25   ar
    24    25    26   ar
    25    26    27   ar
    26    27    28   ar
    27    28    29   ar
    28     5     6   ar
    29     6     7   ar
    30     7     8   ar
    31     8     9   ar
    32     9    10   ar
    33    15    16   ar
    34    16    11   ar
    35    10     1   ar
    36    38    33   ar
    37     9     4   ar
    38    29    24   ar
    39    17    21    1
    40    17    22    1
    41    20    23    1
    42    30    31    1
@<TRIPOS>MOLECULE
*****
 38 42 0 0 0
SMALL
GASTEIGER

@<TRIPOS>ATOM
      1 C         140.2409  139.0988  160.2866 C.ar    1  UNL1        0.1651
      2 N         140.1654  140.5569  160.6307 N.ar    1  UNL1       -0.2121
      3 C         139.7247  140.9825  161.9999 C.ar    1  UNL1        0.1318
      4 C         139.3595  139.9500  163.0249 C.ar    1  UNL1        0.0491
      5 C         138.9188  140.3756  164.3941 C.ar    1  UNL1        0.0041
      6 C         138.5536  139.3432  165.4191 C.ar    1  UNL1        0.0002
      7 C         138.6291  137.8852  165.0750 C.ar    1  UNL1        0.0015
      8 C         139.0698  137.4596  163.7058 C.ar    1  UNL1        0.0192
      9 C         139.4350  138.4920  162.6808 C.ar    1  UNL1        0.0856
     10 N         139.8757  138.0664  161.3116 N.ar    1  UNL1       -0.2264
     11 C         142.5541  138.4181  157.1344 C.ar    1  UNL1        0.0710
     12 C         141.5631  137.8220  156.1790 C.ar    1  UNL1        0.1135
     13 N         140.1314  137.6515  156.5929 N.ar    1  UNL1       -0.2409
     14 C         139.6907  138.0771  157.9621 C.ar    1  UNL1        0.1020
     15 C         140.6816  138.6732  158.9174 C.ar    1  UNL1        0.0562
     16 C         142.1134  138.8437  158.5036 C.ar    1  UNL1        0.0209
     17 N         145.9527  140.1271  156.0037 N.am    1  UNL1       -0.3131
     18 C         144.5210  139.9567  156.4175 C.2     1  UNL1        0.3014
     19 O         143.6247  141.1543  156.5284 O.2     1  UNL1       -0.2527
     20 N         143.9857  138.5886  156.7205 N.am    1  UNL1       -0.2672
     21 H         146.3041  141.0250  155.8048 H       1  UNL1        0.1465
     22 H         146.5410  139.3411  155.9309 H       1  UNL1        0.1465
     23 H         144.5740  137.8026  156.6478 H       1  UNL1        0.1564
     24 C         138.8433  141.8337  164.7382 C.ar    1  UNL1        0.0001
     25 C         137.6666  142.6497  164.2917 C.ar    1  UNL1        0.0000
     26 C         137.5911  144.1078  164.6358 C.ar    1  UNL1        0.0000
     27 C         138.6924  144.7498  165.4264 C.ar    1  UNL1        0.0000
     28 C         139.8691  143.9337  165.8729 C.ar    1  UNL1        0.0000
     29 C         139.9446  142.4757  165.5288 C.ar    1  UNL1        0.0000
     30 N         139.6492  142.4405  162.3440 N.pl3   1  UNL1       -0.3131
     31 H         138.8724  142.7902  162.8374 H       1  UNL1        0.1485
     32 C         140.7573  143.3657  161.9364 C.3     1  UNL1        0.1348
     33 C         141.9375  143.5663  162.8401 C.ar    1  UNL1        0.0788
     34 C         142.3417  144.9516  163.2496 C.ar    1  UNL1        0.0165
     35 C         143.5220  145.1523  164.1534 C.ar    1  UNL1        0.0029
     36 C         144.2980  143.9676  164.6477 C.ar    1  UNL1        0.0207
     37 C         143.8938  142.5823  164.2382 C.ar    1  UNL1        0.0985
     38 N         142.7136  142.3817  163.3345 N.ar    1  UNL1       -0.2464
@<TRIPOS>BOND
     1    17    18   am
     2    18    19    2
     3    18    20   am
     4    20    11    1
     5    11    12   ar
     6    12    13   ar
     7    13    14   ar
     8    14    15   ar
     9    15     1    1
    10     1     2   ar
    11     2     3   ar
    12     3    30    1
    13    30    32    1
    14    32    33    1
    15    33    34   ar
    16    34    35   ar
    17    35    36   ar
    18    36    37   ar
    19    37    38   ar
    20     3     4   ar
    21     4     5   ar
    22     5    24    1
    23    24    25   ar
    24    25    26   ar
    25    26    27   ar
    26    27    28   ar
    27    28    29   ar
    28     5     6   ar
    29     6     7   ar
    30     7     8   ar
    31     8     9   ar
    32     9    10   ar
    33    15    16   ar
    34    16    11   ar
    35    10     1   ar
    36    38    33   ar
    37     9     4   ar
    38    29    24   ar
    39    17    21    1
    40    17    22    1
    41    20    23    1
    42    30    31    1
@<TRIPOS>MOLECULE
*****
 38 42 0 0 0
SMALL
GASTEIGER

@<TRIPOS>ATOM
      1 C         141.5238  139.2961  162.9890 C.ar    1  UNL1        0.1651
      2 N         142.4094  140.0226  163.9576 N.ar    1  UNL1       -0.2121
      3 C         141.9559  140.2397  165.3708 C.ar    1  UNL1        0.1318
      4 C         140.6169  139.7302  165.8155 C.ar    1  UNL1        0.0491
      5 C         140.1635  139.9473  167.2287 C.ar    1  UNL1        0.0041
      6 C         138.8246  139.4378  167.6734 C.ar    1  UNL1        0.0002
      7 C         137.9392  138.7113  166.7049 C.ar    1  UNL1        0.0015
      8 C         138.3926  138.4942  165.2916 C.ar    1  UNL1        0.0192
      9 C         139.7315  139.0037  164.8470 C.ar    1  UNL1        0.0856
     10 N         140.1850  138.7866  163.4337 N.ar    1  UNL1       -0.2264
     11 C         141.4314  138.5148  159.0991 C.ar    1  UNL1        0.0710
     12 C         142.8842  138.6449  158.7493 C.ar    1  UNL1        0.1135
     13 N         143.8836  138.9920  159.8127 N.ar    1  UNL1       -0.2409
     14 C         143.4301  139.2091  161.2259 C.ar    1  UNL1        0.1020
     15 C         141.9773  139.0790  161.5758 C.ar    1  UNL1        0.0562
     16 C         140.9779  138.7319  160.5124 C.ar    1  UNL1        0.0209
     17 N         138.6467  138.9060  156.2986 N.am    1  UNL1       -0.3131
     18 C         139.6461  139.2532  157.3621 C.2     1  UNL1        0.3014
     19 O         139.8594  140.6859  157.7518 O.2     1  UNL1       -0.2527
     20 N         140.4320  138.1677  158.0358 N.am    1  UNL1       -0.2672
     21 H         138.1308  139.6185  155.8565 H       1  UNL1        0.1465
     22 H         138.5067  137.9657  156.0429 H       1  UNL1        0.1465
     23 H         140.2920  137.2273  157.7800 H       1  UNL1        0.1564
     24 C         141.0490  140.6739  168.1973 C.ar    1  UNL1        0.0001
     25 C         140.8830  142.1503  168.4030 C.ar    1  UNL1        0.0000
     26 C         141.7685  142.8769  169.3716 C.ar    1  UNL1        0.0000
     27 C         142.8200  142.1269  170.1344 C.ar    1  UNL1        0.0000
     28 C         142.9859  140.6504  169.9286 C.ar    1  UNL1        0.0000
     29 C         142.1005  139.9239  168.9601 C.ar    1  UNL1        0.0000
     30 N         142.8413  140.9663  166.3394 N.pl3   1  UNL1       -0.3131
     31 H         142.9092  140.6570  167.2716 H       1  UNL1        0.1485
     32 C         143.6233  142.1640  165.8876 C.3     1  UNL1        0.1348
     33 C         142.9652  143.2146  165.0433 C.ar    1  UNL1        0.0788
     34 C         143.7898  144.0553  164.1142 C.ar    1  UNL1        0.0165
     35 C         143.1316  145.1059  163.2698 C.ar    1  UNL1        0.0029
     36 C         141.6488  145.3158  163.3545 C.ar    1  UNL1        0.0207
     37 C         140.8241  144.4751  164.2836 C.ar    1  UNL1        0.0985
     38 N         141.4823  143.4245  165.1280 N.ar    1  UNL1       -0.2464
@<TRIPOS>BOND
     1    17    18   am
     2    18    19    2
     3    18    20   am
     4    20    11    1
     5    11    12   ar
     6    12    13   ar
     7    13    14   ar
     8    14    15   ar
     9    15     1    1
    10     1     2   ar
    11     2     3   ar
    12     3    30    1
    13    30    32    1
    14    32    33    1
    15    33    34   ar
    16    34    35   ar
    17    35    36   ar
    18    36    37   ar
    19    37    38   ar
    20     3     4   ar
    21     4     5   ar
    22     5    24    1
    23    24    25   ar
    24    25    26   ar
    25    26    27   ar
    26    27    28   ar
    27    28    29   ar
    28     5     6   ar
    29     6     7   ar
    30     7     8   ar
    31     8     9   ar
    32     9    10   ar
    33    15    16   ar
    34    16    11   ar
    35    10     1   ar
    36    38    33   ar
    37     9     4   ar
    38    29    24   ar
    39    17    21    1
    40    17    22    1
    41    20    23    1
    42    30    31    1
@<TRIPOS>MOLECULE
*****
 38 42 0 0 0
SMALL
GASTEIGER

@<TRIPOS>ATOM
      1 C         138.8609  142.2110  160.2845 C.ar    1  UNL1        0.1651
      2 N         140.3030  142.0867  160.6785 N.ar    1  UNL1       -0.2121
      3 C         140.7642  142.6039  162.0088 C.ar    1  UNL1        0.1318
      4 C         139.7834  143.2452  162.9452 C.ar    1  UNL1        0.0491
      5 C         140.2446  143.7624  164.2756 C.ar    1  UNL1        0.0041
      6 C         139.2639  144.4037  165.2119 C.ar    1  UNL1        0.0002
      7 C         137.8219  144.5280  164.8179 C.ar    1  UNL1        0.0015
      8 C         137.3607  144.0108  163.4875 C.ar    1  UNL1        0.0192
      9 C         138.3414  143.3695  162.5512 C.ar    1  UNL1        0.0856
     10 N         137.8802  142.8524  161.2208 N.ar    1  UNL1       -0.2264
     11 C         137.2762  142.1033  156.6476 C.ar    1  UNL1        0.0710
     12 C         137.4773  140.6596  156.2934 C.ar    1  UNL1        0.1135
     13 N         138.1396  139.7331  157.2695 N.ar    1  UNL1       -0.2409
     14 C         138.6008  140.2503  158.5999 C.ar    1  UNL1        0.1020
     15 C         138.3997  141.6939  158.9541 C.ar    1  UNL1        0.0562
     16 C         137.7374  142.6205  157.9779 C.ar    1  UNL1        0.0209
     17 N         136.7856  144.7950  153.7728 N.am    1  UNL1       -0.3131
     18 C         137.4480  143.8685  154.7490 C.2     1  UNL1        0.3014
     19 O         138.9444  143.7806  154.8027 O.2     1  UNL1       -0.2527
     20 N         136.6139  143.0298  155.6714 N.am    1  UNL1       -0.2672
     21 H         137.3330  145.3454  153.1673 H       1  UNL1        0.1465
     22 H         135.8034  144.8526  153.7375 H       1  UNL1        0.1465
     23 H         135.6317  143.0875  155.6362 H       1  UNL1        0.1564
     24 C         141.6867  143.6381  164.6695 C.ar    1  UNL1        0.0001
     25 C         142.1223  142.5293  165.5809 C.ar    1  UNL1        0.0000
     26 C         143.5643  142.4050  165.9749 C.ar    1  UNL1        0.0000
     27 C         144.5707  143.3896  165.4575 C.ar    1  UNL1        0.0000
     28 C         144.1350  144.4985  164.5461 C.ar    1  UNL1        0.0000
     29 C         142.6930  144.6227  164.1521 C.ar    1  UNL1        0.0000
     30 N         142.2062  142.4796  162.4028 N.pl3   1  UNL1       -0.3131
     31 H         142.6700  143.2415  162.8194 H       1  UNL1        0.1485
     32 C         142.9414  141.1945  162.1621 C.3     1  UNL1        0.1348
     33 C         142.3737  139.9001  162.6644 C.ar    1  UNL1        0.0788
     34 C         142.7021  139.4240  164.0484 C.ar    1  UNL1        0.0165
     35 C         142.1344  138.1296  164.5507 C.ar    1  UNL1        0.0029
     36 C         141.2381  137.3114  163.6691 C.ar    1  UNL1        0.0207
     37 C         140.9096  137.7876  162.2850 C.ar    1  UNL1        0.0985
     38 N         141.4774  139.0820  161.7828 N.ar    1  UNL1       -0.2464
@<TRIPOS>BOND
     1    17    18   am
     2    18    19    2
     3    18    20   am
     4    20    11    1
     5    11    12   ar
     6    12    13   ar
     7    13    14   ar
     8    14    15   ar
     9    15     1    1
    10     1     2   ar
    11     2     3   ar
    12     3    30    1
    13    30    32    1
    14    32    33    1
    15    33    34   ar
    16    34    35   ar
    17    35    36   ar
    18    36    37   ar
    19    37    38   ar
    20     3     4   ar
    21     4     5   ar
    22     5    24    1
    23    24    25   ar
    24    25    26   ar
    25    26    27   ar
    26    27    28   ar
    27    28    29   ar
    28     5     6   ar
    29     6     7   ar
    30     7     8   ar
    31     8     9   ar
    32     9    10   ar
    33    15    16   ar
    34    16    11   ar
    35    10     1   ar
    36    38    33   ar
    37     9     4   ar
    38    29    24   ar
    39    17    21    1
    40    17    22    1
    41    20    23    1
    42    30    31    1
@<TRIPOS>MOLECULE
*****
 38 42 0 0 0
SMALL
GASTEIGER

@<TRIPOS>ATOM
      1 C         142.8602  141.9816  162.7526 C.ar    1  UNL1        0.1651
      2 N         142.1210  142.7541  163.8047 N.ar    1  UNL1       -0.2121
      3 C         142.0052  142.2050  165.1958 C.ar    1  UNL1        0.1318
      4 C         142.6285  140.8834  165.5347 C.ar    1  UNL1        0.0491
      5 C         142.5127  140.3343  166.9258 C.ar    1  UNL1        0.0041
      6 C         143.1360  139.0127  167.2647 C.ar    1  UNL1        0.0002
      7 C         143.8751  138.2402  166.2126 C.ar    1  UNL1        0.0015
      8 C         143.9909  138.7893  164.8215 C.ar    1  UNL1        0.0192
      9 C         143.3676  140.1109  164.4826 C.ar    1  UNL1        0.0856
     10 N         143.4834  140.6600  163.0915 N.ar    1  UNL1       -0.2264
     11 C         144.0654  142.4737  159.0035 C.ar    1  UNL1        0.0710
     12 C         143.2076  143.6289  158.5794 C.ar    1  UNL1        0.1135
     13 N         142.2341  144.2349  159.5463 N.ar    1  UNL1       -0.2409
     14 C         142.1183  143.6858  160.9373 C.ar    1  UNL1        0.1020
     15 C         142.9760  142.5307  161.3615 C.ar    1  UNL1        0.0562
     16 C         143.9496  141.9246  160.3946 C.ar    1  UNL1        0.0209
     17 N         145.6335  140.0356  156.2930 N.am    1  UNL1       -0.3131
     18 C         144.6599  140.6416  157.2599 C.2     1  UNL1        0.3014
     19 O         143.3073  140.0217  157.4501 O.2     1  UNL1       -0.2527
     20 N         145.0389  141.8677  158.0366 N.am    1  UNL1       -0.2672
     21 H         145.3847  139.2309  155.7832 H       1  UNL1        0.1465
     22 H         146.5212  140.4425  156.1681 H       1  UNL1        0.1465
     23 H         145.9266  142.2746  157.9118 H       1  UNL1        0.1564
     24 C         141.7736  141.1068  167.9779 C.ar    1  UNL1        0.0001
     25 C         140.3631  140.7361  168.3285 C.ar    1  UNL1        0.0000
     26 C         139.6239  141.5087  169.3806 C.ar    1  UNL1        0.0000
     27 C         140.2954  142.6519  170.0822 C.ar    1  UNL1        0.0000
     28 C         141.7060  143.0226  169.7316 C.ar    1  UNL1        0.0000
     29 C         142.4451  142.2500  168.6795 C.ar    1  UNL1        0.0000
     30 N         141.2661  142.9775  166.2479 N.pl3   1  UNL1       -0.3131
     31 H         141.6994  143.1738  167.1099 H       1  UNL1        0.1485
     32 C         139.8669  143.4508  165.9868 C.3     1  UNL1        0.1348
     33 C         139.0260  142.7690  164.9486 C.ar    1  UNL1        0.0788
     34 C         138.6825  141.3164  165.0973 C.ar    1  UNL1        0.0165
     35 C         137.8415  140.6345  164.0591 C.ar    1  UNL1        0.0029
     36 C         137.3440  141.4051  162.8723 C.ar    1  UNL1        0.0207
     37 C         137.6875  142.8577  162.7236 C.ar    1  UNL1        0.0985
     38 N         138.5284  143.5396  163.7618 N.ar    1  UNL1       -0.2464
@<TRIPOS>BOND
     1    17    18   am
     2    18    19    2
     3    18    20   am
     4    20    11    1
     5    11    12   ar
     6    12    13   ar
     7    13    14   ar
     8    14    15   ar
     9    15     1    1
    10     1     2   ar
    11     2     3   ar
    12     3    30    1
    13    30    32    1
    14    32    33    1
    15    33    34   ar
    16    34    35   ar
    17    35    36   ar
    18    36    37   ar
    19    37    38   ar
    20     3     4   ar
    21     4     5   ar
    22     5    24    1
    23    24    25   ar
    24    25    26   ar
    25    26    27   ar
    26    27    28   ar
    27    28    29   ar
    28     5     6   ar
    29     6     7   ar
    30     7     8   ar
    31     8     9   ar
    32     9    10   ar
    33    15    16   ar
    34    16    11   ar
    35    10     1   ar
    36    38    33   ar
    37     9     4   ar
    38    29    24   ar
    39    17    21    1
    40    17    22    1
    41    20    23    1
    42    30    31    1
