@<TRIPOS>MOLECULE
*****
 28 31 0 0 0
SMALL
GASTEIGER

@<TRIPOS>ATOM
      1 C         139.5284  141.6828  164.1847 C.ar    1  UNL1        0.0681
      2 C         140.1244  141.0679  162.9532 C.ar    1  UNL1        0.0208
      3 C         139.6597  141.5061  161.5960 C.ar    1  UNL1        0.0384
      4 C         138.5990  142.5592  161.4704 C.ar    1  UNL1        0.1386
      5 C         138.0030  143.1741  162.7019 C.ar    1  UNL1        0.0384
      6 C         138.4677  142.7359  164.0591 C.ar    1  UNL1        0.0208
      7 C         138.0826  139.4861  165.6284 C.3     1  UNL1        0.0723
      8 C         139.2703  140.1462  166.2638 C.ar    1  UNL1        0.1268
      9 N         139.7350  139.7080  167.6209 N.ar    1  UNL1       -0.2318
     10 C         140.9228  140.3681  168.2563 C.ar    1  UNL1        0.0894
     11 C         141.3875  139.9298  169.6135 C.ar    1  UNL1        0.0489
     12 C         142.5752  140.5899  170.2488 C.ar    1  UNL1        0.1416
     13 F         143.0400  140.1517  171.6060 F       1  UNL1       -0.2041
     14 C         143.2981  141.6882  169.5270 C.ar    1  UNL1        0.0299
     15 C         142.8334  142.1265  168.1698 C.ar    1  UNL1        0.0086
     16 C         141.6457  141.4664  167.5345 C.ar    1  UNL1        0.0743
     17 C         141.1809  141.9047  166.1773 C.ar    1  UNL1        0.2670
     18 O         141.9038  143.0030  165.4555 O.2     1  UNL1       -0.2665
     19 N         139.9932  141.2446  165.5420 N.ar    1  UNL1       -0.2626
     20 O         138.1342  142.9974  160.1132 O.3     1  UNL1       -0.4754
     21 C         139.0272  142.8199  158.9211 C.3     1  UNL1        0.2068
     22 C         139.7119  144.0080  158.3133 C.3     1  UNL1        0.0646
     23 C         140.9636  144.5519  158.9356 C.3     1  UNL1        0.0759
     24 N         140.9847  144.9035  160.3936 N.3     1  UNL1       -0.2726
     25 C         141.9356  144.3593  161.4182 C.3     1  UNL1        0.0721
     26 C         141.5973  144.9805  162.7409 C.3     1  UNL1        0.0188
     27 C         140.4372  145.9087  162.5339 C.3     1  UNL1        0.0188
     28 C         140.0586  145.8611  161.0832 C.3     1  UNL1        0.0721
@<TRIPOS>BOND
     1     7     8    1
     2     8     9   ar
     3     9    10   ar
     4    10    11   ar
     5    11    12   ar
     6    12    13    1
     7    12    14   ar
     8    14    15   ar
     9    15    16   ar
    10    16    17   ar
    11    17    18    2
    12    17    19   ar
    13    19     1    1
    14     1     2   ar
    15     2     3   ar
    16     3     4   ar
    17     4    20    1
    18    20    21    1
    19    21    22    1
    20    22    23    1
    21    23    24    1
    22    24    25    1
    23    25    26    1
    24    26    27    1
    25    27    28    1
    26     4     5   ar
    27     5     6   ar
    28    19     8   ar
    29     6     1   ar
    30    16    10   ar
    31    28    24    1
@<TRIPOS>MOLECULE
*****
 28 31 0 0 0
SMALL
GASTEIGER

@<TRIPOS>ATOM
      1 C         139.6759  141.8641  164.1188 C.ar    1  UNL1        0.0681
      2 C         138.4631  142.7387  164.0007 C.ar    1  UNL1        0.0208
      3 C         138.0195  143.2279  162.6539 C.ar    1  UNL1        0.0384
      4 C         138.7888  142.8426  161.4253 C.ar    1  UNL1        0.1386
      5 C         140.0017  141.9680  161.5434 C.ar    1  UNL1        0.0384
      6 C         140.4453  141.4787  162.8901 C.ar    1  UNL1        0.0208
      7 C         138.2106  139.6124  165.4540 C.3     1  UNL1        0.0723
      8 C         139.3868  140.2490  166.1333 C.ar    1  UNL1        0.1268
      9 N         139.8303  139.7597  167.4800 N.ar    1  UNL1       -0.2318
     10 C         141.0066  140.3963  168.1593 C.ar    1  UNL1        0.0894
     11 C         141.4501  139.9070  169.5060 C.ar    1  UNL1        0.0489
     12 C         142.6263  140.5435  170.1852 C.ar    1  UNL1        0.1416
     13 F         143.0699  140.0543  171.5321 F       1  UNL1       -0.2041
     14 C         143.3590  141.6693  169.5176 C.ar    1  UNL1        0.0299
     15 C         142.9155  142.1586  168.1708 C.ar    1  UNL1        0.0086
     16 C         141.7393  141.5221  167.4916 C.ar    1  UNL1        0.0743
     17 C         141.2957  142.0113  166.1448 C.ar    1  UNL1        0.2670
     18 O         142.0284  143.1371  165.4772 O.2     1  UNL1       -0.2665
     19 N         140.1195  141.3748  165.4656 N.ar    1  UNL1       -0.2626
     20 O         138.3452  143.3318  160.0784 O.3     1  UNL1       -0.4754
     21 C         138.9166  142.7213  158.8331 C.3     1  UNL1        0.2068
     22 C         138.0701  141.8215  157.9825 C.3     1  UNL1        0.0646
     23 C         138.2761  140.3363  158.0259 C.3     1  UNL1        0.0759
     24 N         138.3494  139.6276  159.3458 N.3     1  UNL1       -0.2726
     25 C         139.4497  138.7125  159.7953 C.3     1  UNL1        0.0721
     26 C         139.1157  138.2288  161.1753 C.3     1  UNL1        0.0188
     27 C         137.8088  138.8448  161.5788 C.3     1  UNL1        0.0188
     28 C         137.3352  139.7093  160.4480 C.3     1  UNL1        0.0721
@<TRIPOS>BOND
     1     7     8    1
     2     8     9   ar
     3     9    10   ar
     4    10    11   ar
     5    11    12   ar
     6    12    13    1
     7    12    14   ar
     8    14    15   ar
     9    15    16   ar
    10    16    17   ar
    11    17    18    2
    12    17    19   ar
    13    19     1    1
    14     1     2   ar
    15     2     3   ar
    16     3     4   ar
    17     4    20    1
    18    20    21    1
    19    21    22    1
    20    22    23    1
    21    23    24    1
    22    24    25    1
    23    25    26    1
    24    26    27    1
    25    27    28    1
    26     4     5   ar
    27     5     6   ar
    28    19     8   ar
    29     6     1   ar
    30    16    10   ar
    31    28    24    1
@<TRIPOS>MOLECULE
*****
 28 31 0 0 0
SMALL
GASTEIGER

@<TRIPOS>ATOM
      1 C         142.9998  140.0273  164.5432 C.ar    1  UNL1        0.0681
      2 C         144.3142  140.5317  164.0256 C.ar    1  UNL1        0.0208
      3 C         144.6761  140.3384  162.5828 C.ar    1  UNL1        0.0384
      4 C         143.7235  139.6407  161.6577 C.ar    1  UNL1        0.1386
      5 C         142.4091  139.1364  162.1753 C.ar    1  UNL1        0.0384
      6 C         142.0473  139.3297  163.6181 C.ar    1  UNL1        0.0208
      7 C         143.8556  138.0059  166.5881 C.3     1  UNL1        0.0723
      8 C         143.0659  139.2100  167.0085 C.ar    1  UNL1        0.1268
      9 N         142.7041  139.4033  168.4513 N.ar    1  UNL1       -0.2318
     10 C         141.9144  140.6073  168.8718 C.ar    1  UNL1        0.0894
     11 C         141.5526  140.8006  170.3146 C.ar    1  UNL1        0.0489
     12 C         140.7629  142.0046  170.7349 C.ar    1  UNL1        0.1416
     13 F         140.4011  142.1979  172.1778 F       1  UNL1       -0.2041
     14 C         140.3351  143.0153  169.7125 C.ar    1  UNL1        0.0299
     15 C         140.6968  142.8220  168.2697 C.ar    1  UNL1        0.0086
     16 C         141.4865  141.6180  167.8493 C.ar    1  UNL1        0.0743
     17 C         141.8483  141.4247  166.4065 C.ar    1  UNL1        0.2670
     18 O         141.4205  142.4354  165.3840 O.2     1  UNL1       -0.2665
     19 N         142.6380  140.2207  165.9861 N.ar    1  UNL1       -0.2626
     20 O         144.0854  139.4474  160.2148 O.3     1  UNL1       -0.4754
     21 C         143.6282  140.4401  159.1875 C.3     1  UNL1        0.2068
     22 C         142.9497  141.7066  159.6181 C.3     1  UNL1        0.0646
     23 C         143.7689  142.8975  160.0190 C.3     1  UNL1        0.0759
     24 N         143.4345  143.6503  161.2726 N.3     1  UNL1       -0.2726
     25 C         142.1011  144.2472  161.6135 C.3     1  UNL1        0.0721
     26 C         142.2172  144.9042  162.9569 C.3     1  UNL1        0.0188
     27 C         143.6222  144.7133  163.4464 C.3     1  UNL1        0.0188
     28 C         144.3745  143.9384  162.4054 C.3     1  UNL1        0.0721
@<TRIPOS>BOND
     1     7     8    1
     2     8     9   ar
     3     9    10   ar
     4    10    11   ar
     5    11    12   ar
     6    12    13    1
     7    12    14   ar
     8    14    15   ar
     9    15    16   ar
    10    16    17   ar
    11    17    18    2
    12    17    19   ar
    13    19     1    1
    14     1     2   ar
    15     2     3   ar
    16     3     4   ar
    17     4    20    1
    18    20    21    1
    19    21    22    1
    20    22    23    1
    21    23    24    1
    22    24    25    1
    23    25    26    1
    24    26    27    1
    25    27    28    1
    26     4     5   ar
    27     5     6   ar
    28    19     8   ar
    29     6     1   ar
    30    16    10   ar
    31    28    24    1
@<TRIPOS>MOLECULE
*****
 28 31 0 0 0
SMALL
GASTEIGER

@<TRIPOS>ATOM
      1 C         143.0003  139.5110  164.4399 C.ar    1  UNL1        0.0681
      2 C         144.0173  140.3291  163.7006 C.ar    1  UNL1        0.0208
      3 C         144.3467  140.0052  162.2735 C.ar    1  UNL1        0.0384
      4 C         143.6592  138.8632  161.5858 C.ar    1  UNL1        0.1386
      5 C         142.6422  138.0450  162.3251 C.ar    1  UNL1        0.0384
      6 C         142.3128  138.3690  163.7521 C.ar    1  UNL1        0.0208
      7 C         144.0474  137.7760  166.6520 C.3     1  UNL1        0.0723
      8 C         143.1945  138.9674  166.9731 C.ar    1  UNL1        0.1268
      9 N         142.8651  139.2913  168.4001 N.ar    1  UNL1       -0.2318
     10 C         142.0122  140.4828  168.7212 C.ar    1  UNL1        0.0894
     11 C         141.6828  140.8067  170.1483 C.ar    1  UNL1        0.0489
     12 C         140.8299  141.9981  170.4693 C.ar    1  UNL1        0.1416
     13 F         140.5005  142.3221  171.8964 F       1  UNL1       -0.2041
     14 C         140.3064  142.8656  169.3632 C.ar    1  UNL1        0.0299
     15 C         140.6357  142.5417  167.9361 C.ar    1  UNL1        0.0086
     16 C         141.4886  141.3503  167.6151 C.ar    1  UNL1        0.0743
     17 C         141.8180  141.0263  166.1880 C.ar    1  UNL1        0.2670
     18 O         141.2945  141.8938  165.0819 O.2     1  UNL1       -0.2665
     19 N         142.6709  139.8349  165.8670 N.ar    1  UNL1       -0.2626
     20 O         143.9886  138.5392  160.1586 O.3     1  UNL1       -0.4754
     21 C         142.9613  138.7483  159.0858 C.3     1  UNL1        0.2068
     22 C         141.9049  139.7998  159.2536 C.3     1  UNL1        0.0646
     23 C         140.4609  139.4042  159.3455 C.3     1  UNL1        0.0759
     24 N         139.7900  139.3202  160.6844 N.3     1  UNL1       -0.2726
     25 C         139.7899  140.3869  161.7391 C.3     1  UNL1        0.0721
     26 C         139.0012  139.8807  162.9103 C.3     1  UNL1        0.0188
     27 C         138.5138  138.5011  162.5796 C.3     1  UNL1        0.0188
     28 C         139.0013  138.1547  161.2039 C.3     1  UNL1        0.0721
@<TRIPOS>BOND
     1     7     8    1
     2     8     9   ar
     3     9    10   ar
     4    10    11   ar
     5    11    12   ar
     6    12    13    1
     7    12    14   ar
     8    14    15   ar
     9    15    16   ar
    10    16    17   ar
    11    17    18    2
    12    17    19   ar
    13    19     1    1
    14     1     2   ar
    15     2     3   ar
    16     3     4   ar
    17     4    20    1
    18    20    21    1
    19    21    22    1
    20    22    23    1
    21    23    24    1
    22    24    25    1
    23    25    26    1
    24    26    27    1
    25    27    28    1
    26     4     5   ar
    27     5     6   ar
    28    19     8   ar
    29     6     1   ar
    30    16    10   ar
    31    28    24    1
@<TRIPOS>MOLECULE
*****
 28 31 0 0 0
SMALL
GASTEIGER

@<TRIPOS>ATOM
      1 C         139.9015  139.3433  164.5718 C.ar    1  UNL1        0.0681
      2 C         139.2070  140.2507  163.6000 C.ar    1  UNL1        0.0208
      3 C         138.9930  139.8089  162.1827 C.ar    1  UNL1        0.0384
      4 C         139.4736  138.4597  161.7370 C.ar    1  UNL1        0.1386
      5 C         140.1681  137.5523  162.7087 C.ar    1  UNL1        0.0384
      6 C         140.3821  137.9941  164.1261 C.ar    1  UNL1        0.0208
      7 C         137.8865  138.6437  166.6814 C.3     1  UNL1        0.0723
      8 C         139.1080  139.4354  167.0440 C.ar    1  UNL1        0.1268
      9 N         139.3218  139.8772  168.4614 N.ar    1  UNL1       -0.2318
     10 C         140.5433  140.6689  168.8240 C.ar    1  UNL1        0.0894
     11 C         140.7571  141.1107  170.2414 C.ar    1  UNL1        0.0489
     12 C         141.9785  141.9024  170.6039 C.ar    1  UNL1        0.1416
     13 F         142.1924  142.3443  172.0214 F       1  UNL1       -0.2041
     14 C         142.9860  142.2522  169.5491 C.ar    1  UNL1        0.0299
     15 C         142.7721  141.8104  168.1318 C.ar    1  UNL1        0.0086
     16 C         141.5507  141.0187  167.7692 C.ar    1  UNL1        0.0743
     17 C         141.3368  140.5769  166.3518 C.ar    1  UNL1        0.2670
     18 O         142.3443  140.9267  165.2970 O.2     1  UNL1       -0.2665
     19 N         140.1154  139.7852  165.9892 N.ar    1  UNL1       -0.2626
     20 O         139.2597  138.0178  160.3196 O.3     1  UNL1       -0.4754
     21 C         139.3137  139.0204  159.2052 C.3     1  UNL1        0.2068
     22 C         140.6188  139.3214  158.5298 C.3     1  UNL1        0.0646
     23 C         141.6624  140.1305  159.2412 C.3     1  UNL1        0.0759
     24 N         142.4769  139.5076  160.3360 N.3     1  UNL1       -0.2726
     25 C         143.1237  138.1549  160.2932 C.3     1  UNL1        0.0721
     26 C         143.8342  137.9393  161.5966 C.3     1  UNL1        0.0188
     27 C         143.6266  139.1589  162.4450 C.3     1  UNL1        0.0188
     28 C         142.7877  140.1281  161.6658 C.3     1  UNL1        0.0721
@<TRIPOS>BOND
     1     7     8    1
     2     8     9   ar
     3     9    10   ar
     4    10    11   ar
     5    11    12   ar
     6    12    13    1
     7    12    14   ar
     8    14    15   ar
     9    15    16   ar
    10    16    17   ar
    11    17    18    2
    12    17    19   ar
    13    19     1    1
    14     1     2   ar
    15     2     3   ar
    16     3     4   ar
    17     4    20    1
    18    20    21    1
    19    21    22    1
    20    22    23    1
    21    23    24    1
    22    24    25    1
    23    25    26    1
    24    26    27    1
    25    27    28    1
    26     4     5   ar
    27     5     6   ar
    28    19     8   ar
    29     6     1   ar
    30    16    10   ar
    31    28    24    1
@<TRIPOS>MOLECULE
*****
 28 31 0 0 0
SMALL
GASTEIGER

@<TRIPOS>ATOM
      1 C         139.2077  139.1901  164.4334 C.ar    1  UNL1        0.0681
      2 C         138.5065  138.1143  165.2086 C.ar    1  UNL1        0.0208
      3 C         138.2903  138.2730  166.6844 C.ar    1  UNL1        0.0384
      4 C         138.7754  139.5074  167.3850 C.ar    1  UNL1        0.1386
      5 C         139.4767  140.5831  166.6098 C.ar    1  UNL1        0.0384
      6 C         139.6928  140.4245  165.1340 C.ar    1  UNL1        0.0208
      7 C         141.2375  137.2287  163.4170 C.3     1  UNL1        0.0723
      8 C         140.4388  138.0507  162.4493 C.ar    1  UNL1        0.1268
      9 N         140.6550  137.8920  160.9735 N.ar    1  UNL1       -0.2318
     10 C         139.8562  138.7140  160.0058 C.ar    1  UNL1        0.0894
     11 C         140.0724  138.5553  158.5300 C.ar    1  UNL1        0.0489
     12 C         139.2737  139.3773  157.5624 C.ar    1  UNL1        0.1416
     13 F         139.4898  139.2186  156.0865 F       1  UNL1       -0.2041
     14 C         138.2588  140.3580  158.0705 C.ar    1  UNL1        0.0299
     15 C         138.0426  140.5167  159.5463 C.ar    1  UNL1        0.0086
     16 C         138.8413  139.6947  160.5140 C.ar    1  UNL1        0.0743
     17 C         138.6252  139.8534  161.9898 C.ar    1  UNL1        0.2670
     18 O         137.6103  140.8341  162.4980 O.2     1  UNL1       -0.2665
     19 N         139.4239  139.0314  162.9575 N.ar    1  UNL1       -0.2626
     20 O         138.5593  139.6661  168.8609 O.3     1  UNL1       -0.4754
     21 C         139.5410  140.4475  169.6829 C.3     1  UNL1        0.2068
     22 C         140.7615  139.7728  170.2352 C.3     1  UNL1        0.0646
     23 C         142.1265  140.2789  169.8740 C.3     1  UNL1        0.0759
     24 N         142.5253  140.3975  168.4329 N.3     1  UNL1       -0.2726
     25 C         142.7571  141.6768  167.6845 C.3     1  UNL1        0.0721
     26 C         143.1374  141.3277  166.2762 C.3     1  UNL1        0.0188
     27 C         143.1407  139.8326  166.1540 C.3     1  UNL1        0.0188
     28 C         142.7624  139.2578  167.4869 C.3     1  UNL1        0.0721
@<TRIPOS>BOND
     1     7     8    1
     2     8     9   ar
     3     9    10   ar
     4    10    11   ar
     5    11    12   ar
     6    12    13    1
     7    12    14   ar
     8    14    15   ar
     9    15    16   ar
    10    16    17   ar
    11    17    18    2
    12    17    19   ar
    13    19     1    1
    14     1     2   ar
    15     2     3   ar
    16     3     4   ar
    17     4    20    1
    18    20    21    1
    19    21    22    1
    20    22    23    1
    21    23    24    1
    22    24    25    1
    23    25    26    1
    24    26    27    1
    25    27    28    1
    26     4     5   ar
    27     5     6   ar
    28    19     8   ar
    29     6     1   ar
    30    16    10   ar
    31    28    24    1
@<TRIPOS>MOLECULE
*****
 28 31 0 0 0
SMALL
GASTEIGER

@<TRIPOS>ATOM
      1 C         139.5861  139.2988  164.7123 C.ar    1  UNL1        0.0681
      2 C         138.5274  139.9691  163.8877 C.ar    1  UNL1        0.0208
      3 C         138.2701  139.5123  162.4824 C.ar    1  UNL1        0.0384
      4 C         139.0716  138.3852  161.9015 C.ar    1  UNL1        0.1386
      5 C         140.1303  137.7150  162.7261 C.ar    1  UNL1        0.0384
      6 C         140.3876  138.1718  164.1314 C.ar    1  UNL1        0.0208
      7 C         137.7171  138.4945  166.9168 C.3     1  UNL1        0.0723
      8 C         138.9088  139.3535  167.2200 C.ar    1  UNL1        0.1268
      9 N         139.1660  139.8103  168.6253 N.ar    1  UNL1       -0.2318
     10 C         140.3578  140.6694  168.9285 C.ar    1  UNL1        0.0894
     11 C         140.6150  141.1262  170.3339 C.ar    1  UNL1        0.0489
     12 C         141.8067  141.9852  170.6370 C.ar    1  UNL1        0.1416
     13 F         142.0639  142.4421  172.0425 F       1  UNL1       -0.2041
     14 C         142.7412  142.3874  169.5348 C.ar    1  UNL1        0.0299
     15 C         142.4840  141.9306  168.1294 C.ar    1  UNL1        0.0086
     16 C         141.2923  141.0716  167.8263 C.ar    1  UNL1        0.0743
     17 C         141.0350  140.6147  166.4208 C.ar    1  UNL1        0.2670
     18 O         141.9695  141.0169  165.3186 O.2     1  UNL1       -0.2665
     19 N         139.8433  139.7557  166.1177 N.ar    1  UNL1       -0.2626
     20 O         138.8143  137.9284  160.4961 O.3     1  UNL1       -0.4754
     21 C         139.5555  138.5594  159.3549 C.3     1  UNL1        0.2068
     22 C         140.6255  139.5752  159.6256 C.3     1  UNL1        0.0646
     23 C         140.3319  141.0366  159.4580 C.3     1  UNL1        0.0759
     24 N         140.1080  141.8997  160.6641 N.3     1  UNL1       -0.2726
     25 C         141.0038  141.9877  161.8641 C.3     1  UNL1        0.0721
     26 C         140.3984  142.9688  162.8237 C.3     1  UNL1        0.0188
     27 C         139.1284  143.4873  162.2169 C.3     1  UNL1        0.0188
     28 C         138.9489  142.8266  160.8821 C.3     1  UNL1        0.0721
@<TRIPOS>BOND
     1     7     8    1
     2     8     9   ar
     3     9    10   ar
     4    10    11   ar
     5    11    12   ar
     6    12    13    1
     7    12    14   ar
     8    14    15   ar
     9    15    16   ar
    10    16    17   ar
    11    17    18    2
    12    17    19   ar
    13    19     1    1
    14     1     2   ar
    15     2     3   ar
    16     3     4   ar
    17     4    20    1
    18    20    21    1
    19    21    22    1
    20    22    23    1
    21    23    24    1
    22    24    25    1
    23    25    26    1
    24    26    27    1
    25    27    28    1
    26     4     5   ar
    27     5     6   ar
    28    19     8   ar
    29     6     1   ar
    30    16    10   ar
    31    28    24    1
@<TRIPOS>MOLECULE
*****
 28 31 0 0 0
SMALL
GASTEIGER

@<TRIPOS>ATOM
      1 C         141.9827  139.1095  162.0961 C.ar    1  UNL1        0.0681
      2 C         141.5090  139.9580  160.9534 C.ar    1  UNL1        0.0208
      3 C         141.9654  139.6575  159.5565 C.ar    1  UNL1        0.0384
      4 C         142.8956  138.5085  159.3023 C.ar    1  UNL1        0.1386
      5 C         143.3693  137.6601  160.4450 C.ar    1  UNL1        0.0384
      6 C         142.9129  137.9606  161.8419 C.ar    1  UNL1        0.0208
      7 C         143.6834  140.8001  163.8987 C.3     1  UNL1        0.0723
      8 C         142.3766  140.2553  164.3944 C.ar    1  UNL1        0.1268
      9 N         141.9203  140.5559  165.7913 N.ar    1  UNL1       -0.2318
     10 C         140.6134  140.0111  166.2869 C.ar    1  UNL1        0.0894
     11 C         140.1571  140.3117  167.6838 C.ar    1  UNL1        0.0489
     12 C         138.8503  139.7669  168.1793 C.ar    1  UNL1        0.1416
     13 F         138.3939  140.0675  169.5763 F       1  UNL1       -0.2041
     14 C         138.0000  138.9216  167.2780 C.ar    1  UNL1        0.0299
     15 C         138.4564  138.6211  165.8811 C.ar    1  UNL1        0.0086
     16 C         139.7631  139.1658  165.3856 C.ar    1  UNL1        0.0743
     17 C         140.2196  138.8653  163.9886 C.ar    1  UNL1        0.2670
     18 O         139.3692  138.0200  163.0873 O.2     1  UNL1       -0.2665
     19 N         141.5263  139.4100  163.4931 N.ar    1  UNL1       -0.2626
     20 O         143.3520  138.2080  157.9054 O.3     1  UNL1       -0.4754
     21 C         142.6008  137.2158  157.0680 C.3     1  UNL1        0.2068
     22 C         143.3495  136.2258  156.2258 C.3     1  UNL1        0.0646
     23 C         142.8473  134.8181  156.0983 C.3     1  UNL1        0.0759
     24 N         143.7144  133.6710  156.5250 N.3     1  UNL1       -0.2726
     25 C         144.1283  132.5119  155.6674 C.3     1  UNL1        0.0721
     26 C         144.9896  131.6060  156.4966 C.3     1  UNL1        0.0188
     27 C         145.1081  132.2052  157.8666 C.3     1  UNL1        0.0188
     28 C         144.3200  133.4814  157.8842 C.3     1  UNL1        0.0721
@<TRIPOS>BOND
     1     7     8    1
     2     8     9   ar
     3     9    10   ar
     4    10    11   ar
     5    11    12   ar
     6    12    13    1
     7    12    14   ar
     8    14    15   ar
     9    15    16   ar
    10    16    17   ar
    11    17    18    2
    12    17    19   ar
    13    19     1    1
    14     1     2   ar
    15     2     3   ar
    16     3     4   ar
    17     4    20    1
    18    20    21    1
    19    21    22    1
    20    22    23    1
    21    23    24    1
    22    24    25    1
    23    25    26    1
    24    26    27    1
    25    27    28    1
    26     4     5   ar
    27     5     6   ar
    28    19     8   ar
    29     6     1   ar
    30    16    10   ar
    31    28    24    1
@<TRIPOS>MOLECULE
*****
 28 31 0 0 0
SMALL
GASTEIGER

@<TRIPOS>ATOM
      1 C         142.2573  140.3247  163.8893 C.ar    1  UNL1        0.0681
      2 C         141.7262  141.1477  162.7533 C.ar    1  UNL1        0.0208
      3 C         141.8648  140.6569  161.3427 C.ar    1  UNL1        0.0384
      4 C         142.5344  139.3431  161.0681 C.ar    1  UNL1        0.1386
      5 C         143.0655  138.5201  162.2042 C.ar    1  UNL1        0.0384
      6 C         142.9269  139.0109  163.6148 C.ar    1  UNL1        0.0208
      7 C         144.2457  142.2772  165.0002 C.3     1  UNL1        0.0723
      8 C         143.1130  141.7919  165.8554 C.ar    1  UNL1        0.1268
      9 N         142.9745  142.2827  167.2660 N.ar    1  UNL1       -0.2318
     10 C         141.8417  141.7974  168.1212 C.ar    1  UNL1        0.0894
     11 C         141.7032  142.2883  169.5318 C.ar    1  UNL1        0.0489
     12 C         140.5705  141.8029  170.3870 C.ar    1  UNL1        0.1416
     13 F         140.4320  142.2938  171.7977 F       1  UNL1       -0.2041
     14 C         139.5763  140.8266  169.8316 C.ar    1  UNL1        0.0299
     15 C         139.7148  140.3357  168.4210 C.ar    1  UNL1        0.0086
     16 C         140.8475  140.8211  167.5658 C.ar    1  UNL1        0.0743
     17 C         140.9861  140.3302  166.1552 C.ar    1  UNL1        0.2670
     18 O         139.9919  139.3540  165.5997 O.2     1  UNL1       -0.2665
     19 N         142.1188  140.8156  165.3000 N.ar    1  UNL1       -0.2626
     20 O         142.6729  138.8522  159.6574 O.3     1  UNL1       -0.4754
     21 C         141.7639  139.3796  158.5871 C.3     1  UNL1        0.2068
     22 C         140.4373  138.7247  158.3400 C.3     1  UNL1        0.0646
     23 C         139.1810  139.3531  158.8661 C.3     1  UNL1        0.0759
     24 N         138.8262  139.2190  160.3173 N.3     1  UNL1       -0.2726
     25 C         138.1041  140.2394  161.1465 C.3     1  UNL1        0.0721
     26 C         137.9628  139.6919  162.5358 C.3     1  UNL1        0.0188
     27 C         138.5975  138.3331  162.5654 C.3     1  UNL1        0.0188
     28 C         139.1312  138.0408  161.1943 C.3     1  UNL1        0.0721
@<TRIPOS>BOND
     1     7     8    1
     2     8     9   ar
     3     9    10   ar
     4    10    11   ar
     5    11    12   ar
     6    12    13    1
     7    12    14   ar
     8    14    15   ar
     9    15    16   ar
    10    16    17   ar
    11    17    18    2
    12    17    19   ar
    13    19     1    1
    14     1     2   ar
    15     2     3   ar
    16     3     4   ar
    17     4    20    1
    18    20    21    1
    19    21    22    1
    20    22    23    1
    21    23    24    1
    22    24    25    1
    23    25    26    1
    24    26    27    1
    25    27    28    1
    26     4     5   ar
    27     5     6   ar
    28    19     8   ar
    29     6     1   ar
    30    16    10   ar
    31    28    24    1
