@<TRIPOS>MOLECULE
*****
 26 28 0 0 0
SMALL
GASTEIGER

@<TRIPOS>ATOM
      1 C         140.2036  143.1788  164.1690 C.2     1  UNL1        0.0596
      2 C         140.8987  142.7557  162.9088 C.2     1  UNL1        0.0324
      3 C         140.7402  143.5662  161.6566 C.2     1  UNL1        0.0889
      4 N         141.2986  143.3978  160.2747 N.2     1  UNL1       -0.2236
      5 C         140.7902  144.5272  159.4286 C.2     1  UNL1        0.1859
      6 N         139.9177  145.3937  160.2876 N.2     1  UNL1       -0.2387
      7 C         139.8868  144.7998  161.6646 C.3     1  UNL1        0.1679
      8 C         139.1918  145.2228  162.9248 C.2     1  UNL1        0.0164
      9 C         139.3503  144.4123  164.1770 C.2     1  UNL1        0.0690
     10 CL        138.6552  144.8354  165.4372 Cl      1  UNL1       -0.0812
     11 C         138.2611  140.9778  164.7870 C.3     1  UNL1        0.0229
     12 C         139.3908  141.2678  165.7303 C.3     1  UNL1        0.0888
     13 C         139.5493  140.4573  166.9824 C.3     1  UNL1        0.0921
     14 N         140.6790  140.7473  167.9256 N.3     1  UNL1       -0.2677
     15 C         141.6503  141.8478  167.6166 C.3     1  UNL1        0.0939
     16 C         141.4918  142.6583  166.3644 C.3     1  UNL1        0.1081
     17 N         140.3621  142.3683  165.4213 N.pl3   1  UNL1       -0.3056
     18 C         140.8374  139.9367  169.1777 C.3     1  UNL1        0.1043
     19 C         140.1242  140.3470  170.4320 C.3     1  UNL1        0.1544
     20 O         139.6893  139.3073  171.4219 O.3     1  UNL1       -0.3805
     21 H         139.0058  138.7466  171.0226 H       1  UNL1        0.2105
     22 S         141.0999  144.7510  157.9780 S.3     1  UNL1       -0.0777
     23 C         139.9898  144.7792  156.9697 C.3     1  UNL1        0.0461
     24 C         140.1919  146.2544  156.7884 C.3     1  UNL1        0.0113
     25 C         139.7876  143.3040  157.1510 C.3     1  UNL1        0.0113
     26 C         138.8796  144.8074  155.9614 C.3     1  UNL1        0.0113
@<TRIPOS>BOND
     1    12    11    1
     2    12    13    1
     3    13    14    1
     4    14    18    1
     5    18    19    1
     6    19    20    1
     7    14    15    1
     8    15    16    1
     9    16    17    1
    10    17     1    1
    11     1     2    2
    12     2     3    1
    13     3     4    2
    14     4     5    1
    15     5    22    1
    16    22    23    1
    17    23    24    1
    18    23    25    1
    19    23    26    1
    20     5     6    2
    21     6     7    1
    22     7     8    1
    23     8     9    2
    24     9    10    1
    25    17    12    1
    26     9     1    1
    27     7     3    1
    28    20    21    1
@<TRIPOS>MOLECULE
*****
 26 28 0 0 0
SMALL
GASTEIGER

@<TRIPOS>ATOM
      1 C         140.4112  139.3042  164.3948 C.2     1  UNL1        0.0596
      2 C         141.0501  139.9235  163.1872 C.2     1  UNL1        0.0324
      3 C         140.6938  139.4324  161.8154 C.2     1  UNL1        0.0889
      4 N         141.1565  139.8460  160.4498 N.2     1  UNL1       -0.2236
      5 C         140.4474  138.9912  159.4416 C.2     1  UNL1        0.1859
      6 N         139.5465  138.0493  160.1841 N.2     1  UNL1       -0.2387
      7 C         139.6988  138.3220  161.6512 C.3     1  UNL1        0.1679
      8 C         139.0600  137.7027  162.8588 C.2     1  UNL1        0.0164
      9 C         139.4163  138.1938  164.2306 C.2     1  UNL1        0.0690
     10 CL        138.7774  137.5745  165.4383 Cl      1  UNL1       -0.0812
     11 C         142.9302  138.3564  165.7201 C.3     1  UNL1        0.0229
     12 C         142.0269  139.3214  166.4294 C.3     1  UNL1        0.0888
     13 C         142.3831  139.8125  167.8012 C.3     1  UNL1        0.0921
     14 N         141.4798  140.7775  168.5104 N.3     1  UNL1       -0.2677
     15 C         140.2204  141.2514  167.8477 C.3     1  UNL1        0.0939
     16 C         139.8642  140.7603  166.4759 C.3     1  UNL1        0.1081
     17 N         140.7674  139.7953  165.7668 N.pl3   1  UNL1       -0.3056
     18 C         141.8361  141.2685  169.8822 C.3     1  UNL1        0.1043
     19 C         140.7632  141.4573  170.9134 C.3     1  UNL1        0.1544
     20 O         140.6778  140.5261  172.0862 O.3     1  UNL1       -0.3805
     21 H         140.4500  139.6357  171.7761 H       1  UNL1        0.2105
     22 S         140.6105  139.0652  157.9523 S.3     1  UNL1       -0.0777
     23 C         141.0162  137.8445  157.1807 C.3     1  UNL1        0.0461
     24 C         139.6377  137.7560  156.5960 C.3     1  UNL1        0.0113
     25 C         142.3947  137.9331  157.7653 C.3     1  UNL1        0.0113
     26 C         141.4219  136.6239  156.4090 C.3     1  UNL1        0.0113
@<TRIPOS>BOND
     1    12    11    1
     2    12    13    1
     3    13    14    1
     4    14    18    1
     5    18    19    1
     6    19    20    1
     7    14    15    1
     8    15    16    1
     9    16    17    1
    10    17     1    1
    11     1     2    2
    12     2     3    1
    13     3     4    2
    14     4     5    1
    15     5    22    1
    16    22    23    1
    17    23    24    1
    18    23    25    1
    19    23    26    1
    20     5     6    2
    21     6     7    1
    22     7     8    1
    23     8     9    2
    24     9    10    1
    25    17    12    1
    26     9     1    1
    27     7     3    1
    28    20    21    1
@<TRIPOS>MOLECULE
*****
 26 28 0 0 0
SMALL
GASTEIGER

@<TRIPOS>ATOM
      1 C         139.8873  139.6975  163.0469 C.2     1  UNL1        0.0596
      2 C         140.3937  140.9894  163.6168 C.2     1  UNL1        0.0324
      3 C         140.3175  141.2384  165.0940 C.2     1  UNL1        0.0889
      4 N         140.7337  142.4067  165.9376 N.2     1  UNL1       -0.2236
      5 C         140.4084  142.0860  167.3663 C.2     1  UNL1        0.1859
      6 N         139.7912  140.7194  167.4057 N.2     1  UNL1       -0.2387
      7 C         139.7350  140.1956  166.0013 C.3     1  UNL1        0.1679
      8 C         139.2286  138.9038  165.4314 C.2     1  UNL1        0.0164
      9 C         139.3048  138.6547  163.9542 C.2     1  UNL1        0.0690
     10 CL        138.7984  137.3628  163.3843 Cl      1  UNL1       -0.0812
     11 C         137.5868  140.4564  161.2772 C.3     1  UNL1        0.0229
     12 C         138.8132  139.8279  160.6848 C.3     1  UNL1        0.0888
     13 C         138.8894  139.5789  159.2076 C.3     1  UNL1        0.0921
     14 N         140.1159  138.9504  158.6152 N.3     1  UNL1       -0.2677
     15 C         141.2661  138.5709  159.5000 C.3     1  UNL1        0.0939
     16 C         141.1899  138.8199  160.9772 C.3     1  UNL1        0.1081
     17 N         139.9635  139.4484  161.5696 N.pl3   1  UNL1       -0.3056
     18 C         140.1920  138.7014  157.1380 C.3     1  UNL1        0.1043
     19 C         140.1236  137.2993  156.6092 C.3     1  UNL1        0.1544
     20 O         138.8041  136.7160  156.1986 O.3     1  UNL1       -0.3805
     21 H         138.2349  136.6232  156.9785 H       1  UNL1        0.2105
     22 S         140.6568  142.9756  168.5483 S.3     1  UNL1       -0.0777
     23 C         141.2164  142.4003  169.8155 C.3     1  UNL1        0.0461
     24 C         142.5595  142.2661  169.1614 C.3     1  UNL1        0.0113
     25 C         139.8732  142.5346  170.4696 C.3     1  UNL1        0.0113
     26 C         141.7760  141.8251  171.0828 C.3     1  UNL1        0.0113
@<TRIPOS>BOND
     1    12    11    1
     2    12    13    1
     3    13    14    1
     4    14    18    1
     5    18    19    1
     6    19    20    1
     7    14    15    1
     8    15    16    1
     9    16    17    1
    10    17     1    1
    11     1     2    2
    12     2     3    1
    13     3     4    2
    14     4     5    1
    15     5    22    1
    16    22    23    1
    17    23    24    1
    18    23    25    1
    19    23    26    1
    20     5     6    2
    21     6     7    1
    22     7     8    1
    23     8     9    2
    24     9    10    1
    25    17    12    1
    26     9     1    1
    27     7     3    1
    28    20    21    1
@<TRIPOS>MOLECULE
*****
 26 28 0 0 0
SMALL
GASTEIGER

@<TRIPOS>ATOM
      1 C         140.4363  139.0346  163.6990 C.2     1  UNL1        0.0596
      2 C         141.1372  139.9356  164.6723 C.2     1  UNL1        0.0324
      3 C         140.6050  140.0927  166.0659 C.2     1  UNL1        0.0889
      4 N         141.0786  140.9035  167.2356 N.2     1  UNL1       -0.2236
      5 C         140.1383  140.6609  168.3788 C.2     1  UNL1        0.1859
      6 N         139.0835  139.7001  167.9157 N.2     1  UNL1       -0.2387
      7 C         139.3720  139.3490  166.4862 C.3     1  UNL1        0.1679
      8 C         138.6712  138.4481  165.5129 C.2     1  UNL1        0.0164
      9 C         139.2034  138.2909  164.1193 C.2     1  UNL1        0.0690
     10 CL        138.5026  137.3900  163.1460 Cl      1  UNL1       -0.0812
     11 C         139.3584  140.7419  161.4803 C.3     1  UNL1        0.0229
     12 C         140.4296  139.7311  161.1960 C.3     1  UNL1        0.0888
     13 C         140.9618  139.5739  159.8024 C.3     1  UNL1        0.0921
     14 N         142.0330  138.5630  159.5183 N.3     1  UNL1       -0.2677
     15 C         142.5720  137.7094  160.6277 C.3     1  UNL1        0.0939
     16 C         142.0398  137.8666  162.0212 C.3     1  UNL1        0.1081
     17 N         140.9686  138.8774  162.3054 N.pl3   1  UNL1       -0.3056
     18 C         142.5651  138.4059  158.1247 C.3     1  UNL1        0.1043
     19 C         143.2945  139.5403  157.4680 C.3     1  UNL1        0.1544
     20 O         144.4534  140.1902  158.1644 O.3     1  UNL1       -0.3805
     21 H         144.1389  140.6406  158.9638 H       1  UNL1        0.2105
     22 S         140.2356  141.2718  169.7453 S.3     1  UNL1       -0.0777
     23 C         141.3731  142.1919  170.0763 C.3     1  UNL1        0.0461
     24 C         140.5774  143.3579  169.5692 C.3     1  UNL1        0.0113
     25 C         142.1687  141.0258  170.5835 C.3     1  UNL1        0.0113
     26 C         142.5106  143.1119  170.4073 C.3     1  UNL1        0.0113
@<TRIPOS>BOND
     1    12    11    1
     2    12    13    1
     3    13    14    1
     4    14    18    1
     5    18    19    1
     6    19    20    1
     7    14    15    1
     8    15    16    1
     9    16    17    1
    10    17     1    1
    11     1     2    2
    12     2     3    1
    13     3     4    2
    14     4     5    1
    15     5    22    1
    16    22    23    1
    17    23    24    1
    18    23    25    1
    19    23    26    1
    20     5     6    2
    21     6     7    1
    22     7     8    1
    23     8     9    2
    24     9    10    1
    25    17    12    1
    26     9     1    1
    27     7     3    1
    28    20    21    1
@<TRIPOS>MOLECULE
*****
 26 28 0 0 0
SMALL
GASTEIGER

@<TRIPOS>ATOM
      1 C         141.8680  143.2307  163.2008 C.2     1  UNL1        0.0596
      2 C         140.9395  142.3393  163.9712 C.2     1  UNL1        0.0324
      3 C         141.3285  141.8509  165.3351 C.2     1  UNL1        0.0889
      4 N         140.6251  140.9688  166.3236 N.2     1  UNL1       -0.2236
      5 C         141.5077  140.8266  167.5280 C.2     1  UNL1        0.1859
      6 N         142.7566  141.6209  167.2839 N.2     1  UNL1       -0.2387
      7 C         142.6458  142.2540  165.9286 C.3     1  UNL1        0.1679
      8 C         143.5742  143.1453  165.1582 C.2     1  UNL1        0.0164
      9 C         143.1853  143.6337  163.7943 C.2     1  UNL1        0.0690
     10 CL        144.1137  144.5251  163.0239 Cl      1  UNL1       -0.0812
     11 C         142.5830  141.6223  160.7714 C.3     1  UNL1        0.0229
     12 C         141.8366  142.9149  160.6221 C.3     1  UNL1        0.0888
     13 C         141.4477  143.4032  159.2582 C.3     1  UNL1        0.0921
     14 N         140.7013  144.6958  159.1090 N.3     1  UNL1       -0.2677
     15 C         140.3438  145.5000  160.3237 C.3     1  UNL1        0.0939
     16 C         140.7327  145.0116  161.6876 C.3     1  UNL1        0.1081
     17 N         141.4791  143.7191  161.8368 N.pl3   1  UNL1       -0.3056
     18 C         140.3125  145.1841  157.7451 C.3     1  UNL1        0.1043
     19 C         141.2665  146.0245  156.9491 C.3     1  UNL1        0.1544
     20 O         142.5954  146.4058  157.5310 O.3     1  UNL1       -0.3805
     21 H         142.4591  146.9916  158.2920 H       1  UNL1        0.2105
     22 S         141.1963  140.0300  168.7603 S.3     1  UNL1       -0.0777
     23 C         141.1792  140.7002  170.1021 C.3     1  UNL1        0.0461
     24 C         139.8365  141.2915  169.7898 C.3     1  UNL1        0.0113
     25 C         142.5219  140.1089  170.4145 C.3     1  UNL1        0.0113
     26 C         141.1622  141.3703  171.4440 C.3     1  UNL1        0.0113
@<TRIPOS>BOND
     1    12    11    1
     2    12    13    1
     3    13    14    1
     4    14    18    1
     5    18    19    1
     6    19    20    1
     7    14    15    1
     8    15    16    1
     9    16    17    1
    10    17     1    1
    11     1     2    2
    12     2     3    1
    13     3     4    2
    14     4     5    1
    15     5    22    1
    16    22    23    1
    17    23    24    1
    18    23    25    1
    19    23    26    1
    20     5     6    2
    21     6     7    1
    22     7     8    1
    23     8     9    2
    24     9    10    1
    25    17    12    1
    26     9     1    1
    27     7     3    1
    28    20    21    1
@<TRIPOS>MOLECULE
*****
 26 28 0 0 0
SMALL
GASTEIGER

@<TRIPOS>ATOM
      1 C         140.5262  139.7327  163.3234 C.2     1  UNL1        0.0596
      2 C         140.8941  140.5503  164.5260 C.2     1  UNL1        0.0324
      3 C         140.2520  140.2656  165.8514 C.2     1  UNL1        0.0889
      4 N         140.4136  140.8988  167.2016 N.2     1  UNL1       -0.2236
      5 C         139.5035  140.1879  168.1588 C.2     1  UNL1        0.1859
      6 N         138.7794  139.1153  167.4002 N.2     1  UNL1       -0.2387
      7 C         139.2421  139.1633  165.9742 C.3     1  UNL1        0.1679
      8 C         138.8742  138.3458  164.7715 C.2     1  UNL1        0.0164
      9 C         139.5163  138.6305  163.4462 C.2     1  UNL1        0.0690
     10 CL        139.1484  137.8129  162.2435 Cl      1  UNL1       -0.0812
     11 C         143.0399  138.2974  162.5352 C.3     1  UNL1        0.0229
     12 C         142.4252  139.2998  161.6039 C.3     1  UNL1        0.0888
     13 C         143.0672  139.5845  160.2785 C.3     1  UNL1        0.0921
     14 N         142.4524  140.5868  159.3472 N.3     1  UNL1       -0.2677
     15 C         141.1956  141.3045  159.7412 C.3     1  UNL1        0.0939
     16 C         140.5535  141.0198  161.0666 C.3     1  UNL1        0.1081
     17 N         141.1683  140.0174  161.9979 N.pl3   1  UNL1       -0.3056
     18 C         143.0946  140.8715  158.0218 C.3     1  UNL1        0.1043
     19 C         144.4486  141.5147  157.9671 C.3     1  UNL1        0.1544
     20 O         144.5677  142.9959  157.7628 O.3     1  UNL1       -0.3805
     21 H         144.2422  143.2276  156.8790 H       1  UNL1        0.2105
     22 S         139.3451  140.4955  169.6183 S.3     1  UNL1       -0.0777
     23 C         140.4906  141.0805  170.3901 C.3     1  UNL1        0.0461
     24 C         141.1791  139.7479  170.3784 C.3     1  UNL1        0.0113
     25 C         139.8021  142.4131  170.4018 C.3     1  UNL1        0.0113
     26 C         141.6361  141.6655  171.1618 C.3     1  UNL1        0.0113
@<TRIPOS>BOND
     1    12    11    1
     2    12    13    1
     3    13    14    1
     4    14    18    1
     5    18    19    1
     6    19    20    1
     7    14    15    1
     8    15    16    1
     9    16    17    1
    10    17     1    1
    11     1     2    2
    12     2     3    1
    13     3     4    2
    14     4     5    1
    15     5    22    1
    16    22    23    1
    17    23    24    1
    18    23    25    1
    19    23    26    1
    20     5     6    2
    21     6     7    1
    22     7     8    1
    23     8     9    2
    24     9    10    1
    25    17    12    1
    26     9     1    1
    27     7     3    1
    28    20    21    1
@<TRIPOS>MOLECULE
*****
 26 28 0 0 0
SMALL
GASTEIGER

@<TRIPOS>ATOM
      1 C         142.8519  140.1162  163.9984 C.2     1  UNL1        0.0596
      2 C         142.0026  139.2613  163.1050 C.2     1  UNL1        0.0324
      3 C         142.4314  138.9954  161.6925 C.2     1  UNL1        0.0889
      4 N         141.8056  138.1980  160.5868 N.2     1  UNL1       -0.2236
      5 C         142.6970  138.2942  159.3842 C.2     1  UNL1        0.1859
      6 N         143.8736  139.1510  159.7466 N.2     1  UNL1       -0.2387
      7 C         143.7095  139.5844  161.1732 C.3     1  UNL1        0.1679
      8 C         144.5587  140.4393  162.0665 C.2     1  UNL1        0.0164
      9 C         144.1299  140.7051  163.4791 C.2     1  UNL1        0.0690
     10 CL        144.9792  141.5600  164.3724 Cl      1  UNL1       -0.0812
     11 C         143.7011  138.2615  166.1981 C.3     1  UNL1        0.0229
     12 C         142.8476  139.4547  166.5109 C.3     1  UNL1        0.0888
     13 C         142.4188  139.7206  167.9234 C.3     1  UNL1        0.0921
     14 N         141.5653  140.9138  168.2361 N.3     1  UNL1       -0.2677
     15 C         141.1407  141.8412  167.1363 C.3     1  UNL1        0.0939
     16 C         141.5695  141.5753  165.7237 C.3     1  UNL1        0.1081
     17 N         142.4230  140.3821  165.4110 N.pl3   1  UNL1       -0.3056
     18 C         141.1365  141.1797  169.6487 C.3     1  UNL1        0.1043
     19 C         142.1397  141.1144  170.7620 C.3     1  UNL1        0.1544
     20 O         142.0823  142.1097  171.8828 O.3     1  UNL1       -0.3805
     21 H         142.2786  142.9953  171.5391 H       1  UNL1        0.2105
     22 S         142.4543  137.6472  158.0529 S.3     1  UNL1       -0.0777
     23 C         142.2742  138.4950  156.8286 C.3     1  UNL1        0.0461
     24 C         143.4644  137.8358  156.1971 C.3     1  UNL1        0.0113
     25 C         141.0839  139.1541  157.4602 C.3     1  UNL1        0.0113
     26 C         142.0940  139.3428  155.6044 C.3     1  UNL1        0.0113
@<TRIPOS>BOND
     1    12    11    1
     2    12    13    1
     3    13    14    1
     4    14    18    1
     5    18    19    1
     6    19    20    1
     7    14    15    1
     8    15    16    1
     9    16    17    1
    10    17     1    1
    11     1     2    2
    12     2     3    1
    13     3     4    2
    14     4     5    1
    15     5    22    1
    16    22    23    1
    17    23    24    1
    18    23    25    1
    19    23    26    1
    20     5     6    2
    21     6     7    1
    22     7     8    1
    23     8     9    2
    24     9    10    1
    25    17    12    1
    26     9     1    1
    27     7     3    1
    28    20    21    1
@<TRIPOS>MOLECULE
*****
 26 28 0 0 0
SMALL
GASTEIGER

@<TRIPOS>ATOM
      1 C         140.1002  139.4563  164.5199 C.2     1  UNL1        0.0596
      2 C         140.5453  140.3785  163.4237 C.2     1  UNL1        0.0324
      3 C         140.1392  140.1082  162.0052 C.2     1  UNL1        0.0889
      4 N         140.4237  140.8346  160.7240 N.2     1  UNL1       -0.2236
      5 C         139.7483  140.0912  159.6100 C.2     1  UNL1        0.1859
      6 N         139.0464  138.9053  160.2026 N.2     1  UNL1       -0.2387
      7 C         139.2881  138.9159  161.6830 C.3     1  UNL1        0.1679
      8 C         138.8430  137.9938  162.7792 C.2     1  UNL1        0.0164
      9 C         139.2491  138.2641  164.1976 C.2     1  UNL1        0.0690
     10 CL        138.8040  137.3419  165.2938 Cl      1  UNL1       -0.0812
     11 C         142.7554  138.4919  165.5297 C.3     1  UNL1        0.0229
     12 C         141.8339  139.2444  166.4433 C.3     1  UNL1        0.0888
     13 C         142.2400  139.5147  167.8618 C.3     1  UNL1        0.0921
     14 N         141.3185  140.2671  168.7753 N.3     1  UNL1       -0.2677
     15 C         139.9909  140.7494  168.2704 C.3     1  UNL1        0.0939
     16 C         139.5848  140.4791  166.8520 C.3     1  UNL1        0.1081
     17 N         140.5063  139.7266  165.9384 N.pl3   1  UNL1       -0.3056
     18 C         141.7246  140.5374  170.1937 C.3     1  UNL1        0.1043
     19 C         142.2187  141.8982  170.5862 C.3     1  UNL1        0.1544
     20 O         142.1513  142.3363  172.0192 O.3     1  UNL1       -0.3805
     21 H         141.2231  142.4165  172.2894 H       1  UNL1        0.2105
     22 S         139.7708  140.4675  158.1581 S.3     1  UNL1       -0.0777
     23 C         139.5621  141.8958  157.7502 C.3     1  UNL1        0.0461
     24 C         141.0117  142.0017  157.3794 C.3     1  UNL1        0.0113
     25 C         138.1126  141.7900  158.1210 C.3     1  UNL1        0.0113
     26 C         139.3535  143.3241  157.3423 C.3     1  UNL1        0.0113
@<TRIPOS>BOND
     1    12    11    1
     2    12    13    1
     3    13    14    1
     4    14    18    1
     5    18    19    1
     6    19    20    1
     7    14    15    1
     8    15    16    1
     9    16    17    1
    10    17     1    1
    11     1     2    2
    12     2     3    1
    13     3     4    2
    14     4     5    1
    15     5    22    1
    16    22    23    1
    17    23    24    1
    18    23    25    1
    19    23    26    1
    20     5     6    2
    21     6     7    1
    22     7     8    1
    23     8     9    2
    24     9    10    1
    25    17    12    1
    26     9     1    1
    27     7     3    1
    28    20    21    1
@<TRIPOS>MOLECULE
*****
 26 28 0 0 0
SMALL
GASTEIGER

@<TRIPOS>ATOM
      1 C         140.3173  142.8957  162.6123 C.2     1  UNL1        0.0596
      2 C         141.5633  142.5050  163.3507 C.2     1  UNL1        0.0324
      3 C         141.4631  141.8380  164.6904 C.2     1  UNL1        0.0889
      4 N         142.5081  141.3426  165.6456 N.2     1  UNL1       -0.2236
      5 C         141.8079  140.7601  166.8374 C.2     1  UNL1        0.1859
      6 N         140.3301  140.8955  166.6188 N.2     1  UNL1       -0.2387
      7 C         140.1170  141.5617  165.2919 C.3     1  UNL1        0.1679
      8 C         138.8711  141.9524  164.5536 C.2     1  UNL1        0.0164
      9 C         138.9713  142.6194  163.2138 C.2     1  UNL1        0.0690
     10 CL        137.7254  143.0101  162.4755 Cl      1  UNL1       -0.0812
     11 C         140.2492  145.8886  162.4179 C.3     1  UNL1        0.0229
     12 C         140.3835  145.0592  161.1753 C.3     1  UNL1        0.0888
     13 C         140.4836  145.7262  159.8355 C.3     1  UNL1        0.0921
     14 N         140.6179  144.8968  158.5929 N.3     1  UNL1       -0.2677
     15 C         140.6519  143.4003  158.6901 C.3     1  UNL1        0.0939
     16 C         140.5517  142.7333  160.0299 C.3     1  UNL1        0.1081
     17 N         140.4175  143.5628  161.2725 N.pl3   1  UNL1       -0.3056
     18 C         140.7181  145.5638  157.2532 C.3     1  UNL1        0.1043
     19 C         139.5094  146.2125  156.6460 C.3     1  UNL1        0.1544
     20 O         139.2212  147.6600  156.9132 O.3     1  UNL1       -0.3805
     21 H         139.0149  147.7805  157.8533 H       1  UNL1        0.2105
     22 S         142.4694  140.1495  168.0373 S.3     1  UNL1       -0.0777
     23 C         142.2785  140.7633  169.3925 C.3     1  UNL1        0.0461
     24 C         142.9641  142.0122  168.9234 C.3     1  UNL1        0.0113
     25 C         141.5929  139.5143  169.8616 C.3     1  UNL1        0.0113
     26 C         142.0877  141.3771  170.7478 C.3     1  UNL1        0.0113
@<TRIPOS>BOND
     1    12    11    1
     2    12    13    1
     3    13    14    1
     4    14    18    1
     5    18    19    1
     6    19    20    1
     7    14    15    1
     8    15    16    1
     9    16    17    1
    10    17     1    1
    11     1     2    2
    12     2     3    1
    13     3     4    2
    14     4     5    1
    15     5    22    1
    16    22    23    1
    17    23    24    1
    18    23    25    1
    19    23    26    1
    20     5     6    2
    21     6     7    1
    22     7     8    1
    23     8     9    2
    24     9    10    1
    25    17    12    1
    26     9     1    1
    27     7     3    1
    28    20    21    1
