@<TRIPOS>MOLECULE
*****
 25 25 0 0 0
SMALL
GASTEIGER

@<TRIPOS>ATOM
      1 C         138.3504  139.1398  165.5468 C.ar    1  UNL1       -0.0178
      2 C         138.9080  137.9765  164.7816 C.ar    1  UNL1       -0.0040
      3 C         138.9242  138.0037  163.2819 C.ar    1  UNL1        0.0028
      4 C         138.3828  139.1942  162.5475 C.ar    1  UNL1        0.0369
      5 C         137.8251  140.3575  163.3127 C.ar    1  UNL1        0.1382
      6 C         137.8089  140.3303  164.8124 C.ar    1  UNL1        0.0327
      7 C         138.3342  139.1126  167.0465 C.3     1  UNL1        0.0435
      8 C         139.3927  139.8401  167.8213 C.3     1  UNL1        0.0737
      9 N         139.1720  140.1660  169.2687 N.3     1  UNL1       -0.2895
     10 H         138.8373  141.1288  169.3060 H       1  UNL1        0.1237
     11 C         140.3090  140.0649  170.2420 C.3     1  UNL1        0.1552
     12 C         142.9194  143.0441  170.4864 C.3     1  UNL1        0.1149
     13 N         142.2273  141.8015  170.0099 N.am    1  UNL1       -0.2749
     14 C         142.7614  141.0531  168.8247 C.3     1  UNL1        0.1149
     15 C         141.0011  141.3074  170.7185 C.2     1  UNL1        0.2419
     16 O         140.4670  142.0559  171.9037 O.2     1  UNL1       -0.2734
     17 O         137.2836  141.5481  162.5783 O.3     1  UNL1       -0.4755
     18 C         138.1450  142.7591  162.3745 C.3     1  UNL1        0.2054
     19 C         137.7866  144.0549  163.0397 C.3     1  UNL1        0.0476
     20 C         137.7062  144.1331  164.5355 C.3     1  UNL1        0.0126
     21 C         138.8931  144.5960  165.3272 C.3     1  UNL1        0.1034
     22 C         140.2219  143.9230  165.1497 C.3     1  UNL1        0.3978
     23 F         141.5506  143.2501  164.9721 F       1  UNL1       -0.1700
     24 F         139.7413  142.7590  165.9645 F       1  UNL1       -0.1700
     25 F         140.7025  145.0870  164.3348 F       1  UNL1       -0.1700
@<TRIPOS>BOND
     1    12    13    1
     2    13    14    1
     3    13    15   am
     4    15    16    2
     5    15    11    1
     6    11     9    1
     7     9     8    1
     8     8     7    1
     9     7     1    1
    10     1     2   ar
    11     2     3   ar
    12     3     4   ar
    13     4     5   ar
    14     5    17    1
    15    17    18    1
    16    18    19    1
    17    19    20    1
    18    20    21    1
    19    21    22    1
    20    22    23    1
    21    22    24    1
    22    22    25    1
    23     5     6   ar
    24     6     1   ar
    25     9    10    1
@<TRIPOS>MOLECULE
*****
 25 25 0 0 0
SMALL
GASTEIGER

@<TRIPOS>ATOM
      1 C         138.7725  139.5525  165.0144 C.ar    1  UNL1       -0.0178
      2 C         138.1059  138.8783  166.1766 C.ar    1  UNL1       -0.0040
      3 C         138.4843  139.2529  167.5789 C.ar    1  UNL1        0.0028
      4 C         139.5293  140.3018  167.8190 C.ar    1  UNL1        0.0369
      5 C         140.1959  140.9761  166.6567 C.ar    1  UNL1        0.1382
      6 C         139.8175  140.6014  165.2544 C.ar    1  UNL1        0.0327
      7 C         138.3941  139.1779  163.6121 C.3     1  UNL1        0.0435
      8 C         137.9210  140.2322  162.6558 C.3     1  UNL1        0.0737
      9 N         136.9030  141.2420  163.0963 N.3     1  UNL1       -0.2895
     10 H         136.2905  141.4101  162.2982 H       1  UNL1        0.1237
     11 C         137.3462  142.5863  163.5929 C.3     1  UNL1        0.1552
     12 C         139.5913  145.5899  162.2936 C.3     1  UNL1        0.1149
     13 N         138.8927  144.6406  163.2215 N.am    1  UNL1       -0.2749
     14 C         139.0422  144.7964  164.7059 C.3     1  UNL1        0.1149
     15 C         138.0447  143.5356  162.6650 C.2     1  UNL1        0.2419
     16 O         137.8952  143.3797  161.1806 O.2     1  UNL1       -0.2734
     17 O         141.2410  142.0251  166.8967 O.3     1  UNL1       -0.4755
     18 C         142.1225  142.4770  165.7704 C.3     1  UNL1        0.2054
     19 C         143.5588  142.0468  165.7232 C.3     1  UNL1        0.0476
     20 C         143.9983  141.0073  164.7351 C.3     1  UNL1        0.0126
     21 C         143.3323  139.6635  164.7143 C.3     1  UNL1        0.1034
     22 C         143.7117  138.6226  165.7256 C.3     1  UNL1        0.3978
     23 F         144.0911  137.5817  166.7368 F       1  UNL1       -0.1700
     24 F         142.2767  138.5091  166.1472 F       1  UNL1       -0.1700
     25 F         145.1467  138.7360  165.3040 F       1  UNL1       -0.1700
@<TRIPOS>BOND
     1    12    13    1
     2    13    14    1
     3    13    15   am
     4    15    16    2
     5    15    11    1
     6    11     9    1
     7     9     8    1
     8     8     7    1
     9     7     1    1
    10     1     2   ar
    11     2     3   ar
    12     3     4   ar
    13     4     5   ar
    14     5    17    1
    15    17    18    1
    16    18    19    1
    17    19    20    1
    18    20    21    1
    19    21    22    1
    20    22    23    1
    21    22    24    1
    22    22    25    1
    23     5     6   ar
    24     6     1   ar
    25     9    10    1
@<TRIPOS>MOLECULE
*****
 25 25 0 0 0
SMALL
GASTEIGER

@<TRIPOS>ATOM
      1 C         144.1327  141.9931  164.6161 C.ar    1  UNL1       -0.0178
      2 C         144.9605  140.9382  163.9439 C.ar    1  UNL1       -0.0040
      3 C         144.7885  139.4966  164.3209 C.ar    1  UNL1        0.0028
      4 C         143.7888  139.1099  165.3702 C.ar    1  UNL1        0.0369
      5 C         142.9611  140.1648  166.0424 C.ar    1  UNL1        0.1382
      6 C         143.1330  141.6064  165.6654 C.ar    1  UNL1        0.0327
      7 C         144.3047  143.4348  164.2391 C.3     1  UNL1        0.0435
      8 C         144.0522  143.8762  162.8279 C.3     1  UNL1        0.0737
      9 N         143.0213  144.9282  162.5442 N.3     1  UNL1       -0.2895
     10 H         143.5251  145.7557  162.2252 H       1  UNL1        0.1237
     11 C         142.0915  145.3796  163.6313 C.3     1  UNL1        0.1552
     12 C         138.2624  144.5392  163.0133 C.3     1  UNL1        0.1149
     13 N         139.6153  145.1717  162.8730 N.am    1  UNL1       -0.2749
     14 C         139.8448  146.2289  161.8338 C.3     1  UNL1        0.1149
     15 C         140.7386  144.7471  163.7717 C.2     1  UNL1        0.2419
     16 O         140.5091  143.6899  164.8109 O.2     1  UNL1       -0.2734
     17 O         141.9613  139.7781  167.0918 O.3     1  UNL1       -0.4755
     18 C         140.6574  140.5127  167.1923 C.3     1  UNL1        0.2054
     19 C         139.3641  139.7717  167.0240 C.3     1  UNL1        0.0476
     20 C         138.5856  139.9019  165.7486 C.3     1  UNL1        0.0126
     21 C         138.7017  138.8475  164.6881 C.3     1  UNL1        0.1034
     22 C         139.7923  137.8207  164.7676 C.3     1  UNL1        0.3978
     23 F         140.8830  136.7940  164.8470 F       1  UNL1       -0.1700
     24 F         138.8527  136.8758  165.4561 F       1  UNL1       -0.1700
     25 F         140.7320  138.7656  164.0791 F       1  UNL1       -0.1700
@<TRIPOS>BOND
     1    12    13    1
     2    13    14    1
     3    13    15   am
     4    15    16    2
     5    15    11    1
     6    11     9    1
     7     9     8    1
     8     8     7    1
     9     7     1    1
    10     1     2   ar
    11     2     3   ar
    12     3     4   ar
    13     4     5   ar
    14     5    17    1
    15    17    18    1
    16    18    19    1
    17    19    20    1
    18    20    21    1
    19    21    22    1
    20    22    23    1
    21    22    24    1
    22    22    25    1
    23     5     6   ar
    24     6     1   ar
    25     9    10    1
@<TRIPOS>MOLECULE
*****
 25 25 0 0 0
SMALL
GASTEIGER

@<TRIPOS>ATOM
      1 C         138.7427  140.0162  163.8930 C.ar    1  UNL1       -0.0178
      2 C         138.8748  138.6267  163.3436 C.ar    1  UNL1       -0.0040
      3 C         138.9458  137.4547  164.2771 C.ar    1  UNL1        0.0028
      4 C         138.8846  137.6722  165.7599 C.ar    1  UNL1        0.0369
      5 C         138.7525  139.0616  166.3093 C.ar    1  UNL1        0.1382
      6 C         138.6816  140.2336  165.3758 C.ar    1  UNL1        0.0327
      7 C         138.6718  141.1882  162.9595 C.3     1  UNL1        0.0435
      8 C         137.4020  141.9780  162.8425 C.3     1  UNL1        0.0737
      9 N         137.4279  143.3565  162.2517 N.3     1  UNL1       -0.2895
     10 H         138.0341  143.3144  161.4324 H       1  UNL1        0.1237
     11 C         137.8962  144.5178  163.0777 C.3     1  UNL1        0.1552
     12 C         141.7462  145.4133  163.4315 C.3     1  UNL1        0.1149
     13 N         140.4041  144.7978  163.6957 N.am    1  UNL1       -0.2749
     14 C         140.2277  143.8468  164.8423 C.3     1  UNL1        0.1149
     15 C         139.2384  145.1333  162.8134 C.2     1  UNL1        0.2419
     16 O         139.4147  146.0843  161.6669 O.2     1  UNL1       -0.2734
     17 O         138.6913  139.2792  167.7922 O.3     1  UNL1       -0.4755
     18 C         139.5397  140.3388  168.4305 C.3     1  UNL1        0.2054
     19 C         140.6379  139.9517  169.3761 C.3     1  UNL1        0.0476
     20 C         142.0218  139.6994  168.8554 C.3     1  UNL1        0.0126
     21 C         142.3634  140.0439  167.4361 C.3     1  UNL1        0.1034
     22 C         142.6368  138.9523  166.4442 C.3     1  UNL1        0.3978
     23 F         142.9103  137.8607  165.4525 F       1  UNL1       -0.1700
     24 F         141.8080  139.6728  165.4226 F       1  UNL1       -0.1700
     25 F         143.4657  138.2317  167.4659 F       1  UNL1       -0.1700
@<TRIPOS>BOND
     1    12    13    1
     2    13    14    1
     3    13    15   am
     4    15    16    2
     5    15    11    1
     6    11     9    1
     7     9     8    1
     8     8     7    1
     9     7     1    1
    10     1     2   ar
    11     2     3   ar
    12     3     4   ar
    13     4     5   ar
    14     5    17    1
    15    17    18    1
    16    18    19    1
    17    19    20    1
    18    20    21    1
    19    21    22    1
    20    22    23    1
    21    22    24    1
    22    22    25    1
    23     5     6   ar
    24     6     1   ar
    25     9    10    1
@<TRIPOS>MOLECULE
*****
 25 25 0 0 0
SMALL
GASTEIGER

@<TRIPOS>ATOM
      1 C         139.8427  141.6577  165.8073 C.ar    1  UNL1       -0.0178
      2 C         139.7044  140.7519  166.9949 C.ar    1  UNL1       -0.0040
      3 C         138.9900  139.4400  166.8584 C.ar    1  UNL1        0.0028
      4 C         138.4140  139.0339  165.5343 C.ar    1  UNL1        0.0369
      5 C         138.5523  139.9397  164.3468 C.ar    1  UNL1        0.1382
      6 C         139.2667  141.2516  164.4832 C.ar    1  UNL1        0.0327
      7 C         140.5571  142.9696  165.9438 C.3     1  UNL1        0.0435
      8 C         141.1124  143.6512  164.7285 C.3     1  UNL1        0.0737
      9 N         140.5696  144.9827  164.3016 N.3     1  UNL1       -0.2895
     10 H         139.7685  145.1802  164.9014 H       1  UNL1        0.1237
     11 C         140.1128  145.1881  162.8876 C.3     1  UNL1        0.1552
     12 C         138.3575  142.3182  160.7822 C.3     1  UNL1        0.1149
     13 N         139.4220  143.2016  161.3622 N.am    1  UNL1       -0.2749
     14 C         140.8602  142.9820  160.9968 C.3     1  UNL1        0.1149
     15 C         139.0483  144.3046  162.3076 C.2     1  UNL1        0.2419
     16 O         137.6101  144.5242  162.6729 O.2     1  UNL1       -0.2734
     17 O         137.9763  139.5336  163.0226 O.3     1  UNL1       -0.4755
     18 C         138.3602  138.2199  162.4088 C.3     1  UNL1        0.2054
     19 C         139.7645  137.9973  161.9308 C.3     1  UNL1        0.0476
     20 C         140.8047  137.4744  162.8766 C.3     1  UNL1        0.0126
     21 C         141.8452  138.4002  163.4334 C.3     1  UNL1        0.1034
     22 C         142.0386  138.5056  164.9172 C.3     1  UNL1        0.3978
     23 F         142.2320  138.6111  166.4009 F       1  UNL1       -0.1700
     24 F         141.5864  137.0844  165.0772 F       1  UNL1       -0.1700
     25 F         142.4908  139.9268  164.7572 F       1  UNL1       -0.1700
@<TRIPOS>BOND
     1    12    13    1
     2    13    14    1
     3    13    15   am
     4    15    16    2
     5    15    11    1
     6    11     9    1
     7     9     8    1
     8     8     7    1
     9     7     1    1
    10     1     2   ar
    11     2     3   ar
    12     3     4   ar
    13     4     5   ar
    14     5    17    1
    15    17    18    1
    16    18    19    1
    17    19    20    1
    18    20    21    1
    19    21    22    1
    20    22    23    1
    21    22    24    1
    22    22    25    1
    23     5     6   ar
    24     6     1   ar
    25     9    10    1
@<TRIPOS>MOLECULE
*****
 25 25 0 0 0
SMALL
GASTEIGER

@<TRIPOS>ATOM
      1 C         138.6661  139.8256  163.5080 C.ar    1  UNL1       -0.0178
      2 C         138.6098  139.0914  164.8148 C.ar    1  UNL1       -0.0040
      3 C         139.3998  137.8300  165.0010 C.ar    1  UNL1        0.0028
      4 C         140.2462  137.3028  163.8805 C.ar    1  UNL1        0.0369
      5 C         140.3025  138.0369  162.5737 C.ar    1  UNL1        0.1382
      6 C         139.5125  139.2983  162.3875 C.ar    1  UNL1        0.0327
      7 C         137.8761  141.0870  163.3217 C.3     1  UNL1        0.0435
      8 C         137.9677  141.8456  162.0310 C.3     1  UNL1        0.0737
      9 N         137.4850  143.2640  161.9588 N.3     1  UNL1       -0.2895
     10 H         137.7763  143.6284  161.0518 H       1  UNL1        0.1237
     11 C         137.9285  144.2605  162.9886 C.3     1  UNL1        0.1552
     12 C         141.6871  145.4420  163.4645 C.3     1  UNL1        0.1149
     13 N         140.4032  144.6897  163.6530 N.am    1  UNL1       -0.2749
     14 C         140.3101  143.6142  164.6946 C.3     1  UNL1        0.1149
     15 C         139.2124  145.0128  162.8000 C.2     1  UNL1        0.2419
     16 O         139.3056  146.0883  161.7585 O.2     1  UNL1       -0.2734
     17 O         141.1489  137.5097  161.4531 O.3     1  UNL1       -0.4755
     18 C         142.5217  138.0686  161.2231 C.3     1  UNL1        0.2054
     19 C         143.4889  138.1757  162.3647 C.3     1  UNL1        0.0476
     20 C         143.6515  139.4784  163.0901 C.3     1  UNL1        0.0126
     21 C         143.1974  139.6056  164.5140 C.3     1  UNL1        0.1034
     22 C         143.7787  138.7121  165.5694 C.3     1  UNL1        0.3978
     23 F         144.3599  137.8185  166.6247 F       1  UNL1       -0.1700
     24 F         145.1563  138.9875  165.0438 F       1  UNL1       -0.1700
     25 F         142.4011  138.4366  166.0949 F       1  UNL1       -0.1700
@<TRIPOS>BOND
     1    12    13    1
     2    13    14    1
     3    13    15   am
     4    15    16    2
     5    15    11    1
     6    11     9    1
     7     9     8    1
     8     8     7    1
     9     7     1    1
    10     1     2   ar
    11     2     3   ar
    12     3     4   ar
    13     4     5   ar
    14     5    17    1
    15    17    18    1
    16    18    19    1
    17    19    20    1
    18    20    21    1
    19    21    22    1
    20    22    23    1
    21    22    24    1
    22    22    25    1
    23     5     6   ar
    24     6     1   ar
    25     9    10    1
@<TRIPOS>MOLECULE
*****
 25 25 0 0 0
SMALL
GASTEIGER

@<TRIPOS>ATOM
      1 C         140.4850  138.2583  164.7572 C.ar    1  UNL1       -0.0178
      2 C         139.1936  137.5824  165.1111 C.ar    1  UNL1       -0.0040
      3 C         138.2176  138.2616  166.0255 C.ar    1  UNL1        0.0028
      4 C         138.5330  139.6167  166.5859 C.ar    1  UNL1        0.0369
      5 C         139.8244  140.2926  166.2320 C.ar    1  UNL1        0.1382
      6 C         140.8004  139.6134  165.3176 C.ar    1  UNL1        0.0327
      7 C         141.4610  137.5791  163.8428 C.3     1  UNL1        0.0435
      8 C         141.4658  137.9017  162.3779 C.3     1  UNL1        0.0737
      9 N         142.4402  137.2208  161.4632 N.3     1  UNL1       -0.2895
     10 H         142.5037  136.2502  161.7704 H       1  UNL1        0.1237
     11 C         143.8459  137.7320  161.3502 C.3     1  UNL1        0.1552
     12 C         144.6545  141.6122  161.5521 C.3     1  UNL1        0.1149
     13 N         144.4038  140.1930  161.9684 N.am    1  UNL1       -0.2749
     14 C         144.4603  139.8159  163.4191 C.3     1  UNL1        0.1149
     15 C         144.0966  139.1511  160.9340 C.2     1  UNL1        0.2419
     16 O         144.0402  139.5283  159.4832 O.2     1  UNL1       -0.2734
     17 O         140.1399  141.6478  166.7924 O.3     1  UNL1       -0.4755
     18 C         141.0261  142.5872  166.0295 C.3     1  UNL1        0.2054
     19 C         140.4364  143.5045  164.9994 C.3     1  UNL1        0.0476
     20 C         139.0208  143.9800  165.1410 C.3     1  UNL1        0.0126
     21 C         137.8931  143.1476  164.6069 C.3     1  UNL1        0.1034
     22 C         137.7389  142.9543  163.1273 C.3     1  UNL1        0.3978
     23 F         137.5846  142.7610  161.6479 F       1  UNL1       -0.1700
     24 F         137.3497  144.3954  162.9796 F       1  UNL1       -0.1700
     25 F         138.1280  141.5132  163.2751 F       1  UNL1       -0.1700
@<TRIPOS>BOND
     1    12    13    1
     2    13    14    1
     3    13    15   am
     4    15    16    2
     5    15    11    1
     6    11     9    1
     7     9     8    1
     8     8     7    1
     9     7     1    1
    10     1     2   ar
    11     2     3   ar
    12     3     4   ar
    13     4     5   ar
    14     5    17    1
    15    17    18    1
    16    18    19    1
    17    19    20    1
    18    20    21    1
    19    21    22    1
    20    22    23    1
    21    22    24    1
    22    22    25    1
    23     5     6   ar
    24     6     1   ar
    25     9    10    1
@<TRIPOS>MOLECULE
*****
 25 25 0 0 0
SMALL
GASTEIGER

@<TRIPOS>ATOM
      1 C         144.1694  142.1320  164.6277 C.ar    1  UNL1       -0.0178
      2 C         145.1804  141.2790  163.9204 C.ar    1  UNL1       -0.0040
      3 C         145.1655  139.7904  164.1039 C.ar    1  UNL1        0.0028
      4 C         144.1397  139.1547  164.9947 C.ar    1  UNL1        0.0369
      5 C         143.1287  140.0077  165.7020 C.ar    1  UNL1        0.1382
      6 C         143.1436  141.4963  165.5185 C.ar    1  UNL1        0.0327
      7 C         144.1843  143.6207  164.4442 C.3     1  UNL1        0.0435
      8 C         144.1577  144.2064  163.0636 C.3     1  UNL1        0.0737
      9 N         142.9747  145.0109  162.6128 N.3     1  UNL1       -0.2895
     10 H         143.3429  145.8407  162.1476 H       1  UNL1        0.1237
     11 C         141.9663  145.4882  163.6155 C.3     1  UNL1        0.1552
     12 C         138.1885  144.4525  162.9787 C.3     1  UNL1        0.1149
     13 N         139.5066  145.1563  162.8475 N.am    1  UNL1       -0.2749
     14 C         139.6833  146.2318  161.8169 C.3     1  UNL1        0.1149
     15 C         140.6481  144.7845  163.7467 C.2     1  UNL1        0.2419
     16 O         140.4715  143.7089  164.7773 O.2     1  UNL1       -0.2734
     17 O         142.1028  139.3720  166.5928 O.3     1  UNL1       -0.4755
     18 C         140.6431  139.6158  166.3486 C.3     1  UNL1        0.2054
     19 C         139.8205  140.3349  167.3764 C.3     1  UNL1        0.0476
     20 C         140.4633  140.8338  168.6364 C.3     1  UNL1        0.0126
     21 C         139.7152  141.7673  169.5412 C.3     1  UNL1        0.1034
     22 C         140.2430  143.1481  169.7964 C.3     1  UNL1        0.3978
     23 F         140.7708  144.5287  170.0515 F       1  UNL1       -0.1700
     24 F         140.3038  142.8533  171.2659 F       1  UNL1       -0.1700
     25 F         140.1821  143.4429  168.3269 F       1  UNL1       -0.1700
@<TRIPOS>BOND
     1    12    13    1
     2    13    14    1
     3    13    15   am
     4    15    16    2
     5    15    11    1
     6    11     9    1
     7     9     8    1
     8     8     7    1
     9     7     1    1
    10     1     2   ar
    11     2     3   ar
    12     3     4   ar
    13     4     5   ar
    14     5    17    1
    15    17    18    1
    16    18    19    1
    17    19    20    1
    18    20    21    1
    19    21    22    1
    20    22    23    1
    21    22    24    1
    22    22    25    1
    23     5     6   ar
    24     6     1   ar
    25     9    10    1
@<TRIPOS>MOLECULE
*****
 25 25 0 0 0
SMALL
GASTEIGER

@<TRIPOS>ATOM
      1 C         138.1278  139.8345  162.8521 C.ar    1  UNL1       -0.0178
      2 C         138.5663  138.4611  162.4380 C.ar    1  UNL1       -0.0040
      3 C         138.9838  137.4623  163.4763 C.ar    1  UNL1        0.0028
      4 C         138.9629  137.8368  164.9286 C.ar    1  UNL1        0.0369
      5 C         138.5244  139.2102  165.3426 C.ar    1  UNL1        0.1382
      6 C         138.1069  140.2091  164.3044 C.ar    1  UNL1        0.0327
      7 C         137.7103  140.8334  161.8138 C.3     1  UNL1        0.0435
      8 C         138.2852  142.2187  161.8318 C.3     1  UNL1        0.0737
      9 N         137.4123  143.3886  162.1772 N.3     1  UNL1       -0.2895
     10 H         137.2491  143.9004  161.3101 H       1  UNL1        0.1237
     11 C         137.8710  144.3926  163.1929 C.3     1  UNL1        0.1552
     12 C         141.7330  145.2640  163.4680 C.3     1  UNL1        0.1149
     13 N         140.3086  145.2700  162.9977 N.am    1  UNL1       -0.2749
     14 C         139.8976  146.1594  161.8619 C.3     1  UNL1        0.1149
     15 C         139.2953  144.3866  163.6632 C.2     1  UNL1        0.2419
     16 O         139.7064  143.4972  164.7990 O.2     1  UNL1       -0.2734
     17 O         138.5034  139.5848  166.7950 O.3     1  UNL1       -0.4755
     18 C         139.7160  140.1997  167.4285 C.3     1  UNL1        0.2054
     19 C         139.6997  140.5619  168.8841 C.3     1  UNL1        0.0476
     20 C         140.2917  141.8625  169.3401 C.3     1  UNL1        0.0126
     21 C         141.4050  142.4947  168.5585 C.3     1  UNL1        0.1034
     22 C         142.8090  142.4523  169.0848 C.3     1  UNL1        0.3978
     23 F         144.2130  142.4100  169.6111 F       1  UNL1       -0.1700
     24 F         142.2812  142.3775  170.4869 F       1  UNL1       -0.1700
     25 F         143.3368  142.5272  167.6828 F       1  UNL1       -0.1700
@<TRIPOS>BOND
     1    12    13    1
     2    13    14    1
     3    13    15   am
     4    15    16    2
     5    15    11    1
     6    11     9    1
     7     9     8    1
     8     8     7    1
     9     7     1    1
    10     1     2   ar
    11     2     3   ar
    12     3     4   ar
    13     4     5   ar
    14     5    17    1
    15    17    18    1
    16    18    19    1
    17    19    20    1
    18    20    21    1
    19    21    22    1
    20    22    23    1
    21    22    24    1
    22    22    25    1
    23     5     6   ar
    24     6     1   ar
    25     9    10    1
