@<TRIPOS>MOLECULE
*****
 35 38 0 0 0
SMALL
GASTEIGER

@<TRIPOS>ATOM
      1 C         140.0502  143.5541  164.9533 C.3     1  UNL1        0.1812
      2 O         141.5081  143.2140  165.0463 O.3     1  UNL1       -0.3784
      3 H         141.6139  142.3685  165.5098 H       1  UNL1        0.2106
      4 C         138.5923  143.8943  164.8603 C.3     1  UNL1        0.4197
      5 F         137.1343  144.2344  164.7672 F       1  UNL1       -0.1676
      6 F         138.8758  145.2603  165.4114 F       1  UNL1       -0.1676
      7 F         138.3087  142.5283  164.3092 F       1  UNL1       -0.1676
      8 C         139.7082  142.2876  165.6807 C.3     1  UNL1        0.0398
      9 C         140.4692  141.9026  166.9147 C.3     1  UNL1        0.0212
     10 C         140.9626  140.6656  166.2245 C.3     1  UNL1        0.0044
     11 C         139.9757  143.1396  167.6049 C.3     1  UNL1        0.0044
     12 C         139.3239  139.8824  168.8140 C.3     1  UNL1        0.0307
     13 C         140.6575  140.5076  169.0983 C.ar    1  UNL1       -0.0257
     14 C         141.4185  140.1226  170.3323 C.ar    1  UNL1       -0.0023
     15 C         142.7520  140.7477  170.6167 C.ar    1  UNL1        0.0293
     16 C         143.3247  141.7578  169.6671 C.ar    1  UNL1        0.1398
     17 F         144.6582  142.3829  169.9514 F       1  UNL1       -0.2042
     18 C         142.5637  142.1428  168.4331 C.ar    1  UNL1        0.0250
     19 C         141.2301  141.5176  168.1487 C.ar    1  UNL1       -0.0244
     20 C         140.3921  144.8206  164.2259 C.3     1  UNL1        0.0811
     21 C         140.7451  144.7766  162.7687 C.2     1  UNL1        0.0613
     22 C         140.1065  145.5896  161.6818 C.2     1  UNL1        0.0160
     23 C         140.7653  145.2274  160.3839 C.2     1  UNL1        0.0182
     24 C         140.5481  145.7078  158.9796 C.2     1  UNL1        0.0200
     25 C         141.3768  145.1512  157.8599 C.2     1  UNL1        0.0765
     26 N         142.4226  144.1143  158.1446 N.2     1  UNL1       -0.2639
     27 C         142.6399  143.6340  159.5489 C.3     1  UNL1        0.1707
     28 C         141.8113  144.1905  160.6685 C.2     1  UNL1        0.0832
     29 N         141.7987  143.9119  162.1425 N.2     1  UNL1       -0.2519
     30 C         141.1596  145.6315  156.4556 C.ar    1  UNL1        0.0172
     31 C         142.0206  145.1107  155.3432 C.ar    1  UNL1        0.0015
     32 C         141.8034  145.5911  153.9389 C.ar    1  UNL1        0.0000
     33 C         140.7251  146.5923  153.6470 C.ar    1  UNL1        0.0000
     34 C         139.8642  147.1130  154.7595 C.ar    1  UNL1        0.0000
     35 C         140.0814  146.6327  156.1638 C.ar    1  UNL1        0.0015
@<TRIPOS>BOND
     1    12    13    1
     2    13    14   ar
     3    14    15   ar
     4    15    16   ar
     5    16    17    1
     6    16    18   ar
     7    18    19   ar
     8    19     9    1
     9     9    10    1
    10     9    11    1
    11     9     8    1
    12     8     1    1
    13     1     2    1
    14     1    20    1
    15    20    21    1
    16    21    22    2
    17    22    23    1
    18    23    24    2
    19    24    25    1
    20    25    30    1
    21    30    31   ar
    22    31    32   ar
    23    32    33   ar
    24    33    34   ar
    25    34    35   ar
    26    25    26    2
    27    26    27    1
    28    27    28    1
    29    28    29    2
    30     1     4    1
    31     4     5    1
    32     4     6    1
    33     4     7    1
    34    19    13   ar
    35    29    21    1
    36    28    23    1
    37    35    30   ar
    38     2     3    1
@<TRIPOS>MOLECULE
*****
 35 38 0 0 0
SMALL
GASTEIGER

@<TRIPOS>ATOM
      1 C         138.7959  144.0267  163.7608 C.3     1  UNL1        0.1812
      2 O         138.9392  143.2707  162.4733 O.3     1  UNL1       -0.3784
      3 H         138.4118  142.4577  162.5153 H       1  UNL1        0.2106
      4 C         138.6526  144.7827  165.0484 C.3     1  UNL1        0.4197
      5 F         138.5093  145.5387  166.3361 F       1  UNL1       -0.1676
      6 F         140.1228  145.0804  165.0373 F       1  UNL1       -0.1676
      7 F         137.1826  144.4850  165.0596 F       1  UNL1       -0.1676
      8 C         137.8802  142.9605  164.2850 C.3     1  UNL1        0.0398
      9 C         138.3675  141.5471  164.4075 C.3     1  UNL1        0.0212
     10 C         139.3030  141.9646  165.5032 C.3     1  UNL1        0.0044
     11 C         137.4320  141.1296  163.3119 C.3     1  UNL1        0.0044
     12 C         140.7977  140.6612  162.8878 C.3     1  UNL1        0.0307
     13 C         140.0698  139.6908  163.7702 C.ar    1  UNL1       -0.0257
     14 C         140.5571  138.2775  163.8927 C.ar    1  UNL1       -0.0023
     15 C         139.8293  137.3071  164.7751 C.ar    1  UNL1        0.0293
     16 C         138.6142  137.7500  165.5350 C.ar    1  UNL1        0.1398
     17 F         137.8864  136.7796  166.4174 F       1  UNL1       -0.2042
     18 C         138.1269  139.1634  165.4125 C.ar    1  UNL1        0.0250
     19 C         138.8548  140.1338  164.5301 C.ar    1  UNL1       -0.0244
     20 C         139.7116  145.0929  163.2367 C.3     1  UNL1        0.0811
     21 C         140.3013  144.9664  161.8634 C.2     1  UNL1        0.0613
     22 C         139.8671  145.7247  160.6441 C.2     1  UNL1        0.0160
     23 C         140.7262  145.2864  159.4952 C.2     1  UNL1        0.0182
     24 C         140.7543  145.6914  158.0512 C.2     1  UNL1        0.0200
     25 C         141.7476  145.0673  157.1164 C.2     1  UNL1        0.0765
     26 N         142.7128  144.0382  157.6256 N.2     1  UNL1       -0.2639
     27 C         142.6847  143.6331  159.0696 C.3     1  UNL1        0.1707
     28 C         141.6914  144.2572  160.0044 C.2     1  UNL1        0.0832
     29 N         141.4288  144.0595  161.4680 N.2     1  UNL1       -0.2519
     30 C         141.7757  145.4723  155.6724 C.ar    1  UNL1        0.0172
     31 C         140.7301  146.4035  155.1341 C.ar    1  UNL1        0.0015
     32 C         140.7582  146.8086  153.6901 C.ar    1  UNL1        0.0000
     33 C         141.8320  146.2824  152.7844 C.ar    1  UNL1        0.0000
     34 C         142.8775  145.3513  153.3226 C.ar    1  UNL1        0.0000
     35 C         142.8494  144.9462  154.7666 C.ar    1  UNL1        0.0015
@<TRIPOS>BOND
     1    12    13    1
     2    13    14   ar
     3    14    15   ar
     4    15    16   ar
     5    16    17    1
     6    16    18   ar
     7    18    19   ar
     8    19     9    1
     9     9    10    1
    10     9    11    1
    11     9     8    1
    12     8     1    1
    13     1     2    1
    14     1    20    1
    15    20    21    1
    16    21    22    2
    17    22    23    1
    18    23    24    2
    19    24    25    1
    20    25    30    1
    21    30    31   ar
    22    31    32   ar
    23    32    33   ar
    24    33    34   ar
    25    34    35   ar
    26    25    26    2
    27    26    27    1
    28    27    28    1
    29    28    29    2
    30     1     4    1
    31     4     5    1
    32     4     6    1
    33     4     7    1
    34    19    13   ar
    35    29    21    1
    36    28    23    1
    37    35    30   ar
    38     2     3    1
@<TRIPOS>MOLECULE
*****
 35 38 0 0 0
SMALL
GASTEIGER

@<TRIPOS>ATOM
      1 C         139.6172  143.0426  164.4490 C.3     1  UNL1        0.1812
      2 O         140.7905  142.1885  164.0698 O.3     1  UNL1       -0.3784
      3 H         140.6793  141.3011  164.4453 H       1  UNL1        0.2106
      4 C         138.4439  143.8966  164.8282 C.3     1  UNL1        0.4197
      5 F         137.2705  144.7508  165.2074 F       1  UNL1       -0.1676
      6 F         137.5193  142.7470  164.5567 F       1  UNL1       -0.1676
      7 F         139.3684  145.0462  165.0996 F       1  UNL1       -0.1676
      8 C         139.0199  141.8890  165.1991 C.3     1  UNL1        0.0398
      9 C         139.7799  141.2520  166.3245 C.3     1  UNL1        0.0212
     10 C         139.3342  139.8976  165.8589 C.3     1  UNL1        0.0044
     11 C         140.2255  142.6065  166.7902 C.3     1  UNL1        0.0044
     12 C         142.5643  140.2333  165.8669 C.3     1  UNL1        0.0307
     13 C         141.9320  140.1057  167.2212 C.ar    1  UNL1       -0.0257
     14 C         142.6920  139.4687  168.3466 C.ar    1  UNL1       -0.0023
     15 C         142.0599  139.3410  169.7009 C.ar    1  UNL1        0.0293
     16 C         140.6676  139.8504  169.9297 C.ar    1  UNL1        0.1398
     17 F         140.0354  139.7227  171.2840 F       1  UNL1       -0.2042
     18 C         139.9076  140.4874  168.8043 C.ar    1  UNL1        0.0250
     19 C         140.5399  140.6150  167.4500 C.ar    1  UNL1       -0.0244
     20 C         140.2145  144.1961  163.6989 C.3     1  UNL1        0.0811
     21 C         140.1157  144.2499  162.2032 C.2     1  UNL1        0.0613
     22 C         140.5121  145.4067  161.3344 C.2     1  UNL1        0.0160
     23 C         140.2445  145.0282  159.9078 C.2     1  UNL1        0.0182
     24 C         140.4399  145.7702  158.6189 C.2     1  UNL1        0.0200
     25 C         140.0734  145.1213  157.3171 C.2     1  UNL1        0.0765
     26 N         139.5116  143.7306  157.3041 N.2     1  UNL1       -0.2639
     27 C         139.3163  142.9886  158.5930 C.3     1  UNL1        0.1707
     28 C         139.6828  143.6373  159.8949 C.2     1  UNL1        0.0832
     29 N         139.6031  143.1564  161.3135 N.2     1  UNL1       -0.2519
     30 C         140.2687  145.8633  156.0282 C.ar    1  UNL1        0.0172
     31 C         141.2129  145.3303  154.9915 C.ar    1  UNL1        0.0015
     32 C         141.4082  146.0723  153.7026 C.ar    1  UNL1        0.0000
     33 C         140.6594  147.3474  153.4503 C.ar    1  UNL1        0.0000
     34 C         139.7152  147.8803  154.4869 C.ar    1  UNL1        0.0000
     35 C         139.5199  147.1383  155.7758 C.ar    1  UNL1        0.0015
@<TRIPOS>BOND
     1    12    13    1
     2    13    14   ar
     3    14    15   ar
     4    15    16   ar
     5    16    17    1
     6    16    18   ar
     7    18    19   ar
     8    19     9    1
     9     9    10    1
    10     9    11    1
    11     9     8    1
    12     8     1    1
    13     1     2    1
    14     1    20    1
    15    20    21    1
    16    21    22    2
    17    22    23    1
    18    23    24    2
    19    24    25    1
    20    25    30    1
    21    30    31   ar
    22    31    32   ar
    23    32    33   ar
    24    33    34   ar
    25    34    35   ar
    26    25    26    2
    27    26    27    1
    28    27    28    1
    29    28    29    2
    30     1     4    1
    31     4     5    1
    32     4     6    1
    33     4     7    1
    34    19    13   ar
    35    29    21    1
    36    28    23    1
    37    35    30   ar
    38     2     3    1
@<TRIPOS>MOLECULE
*****
 35 38 0 0 0
SMALL
GASTEIGER

@<TRIPOS>ATOM
      1 C         138.8067  143.9470  163.6494 C.3     1  UNL1        0.1812
      2 O         138.9270  143.1956  162.3568 O.3     1  UNL1       -0.3784
      3 H         138.5018  142.3284  162.4462 H       1  UNL1        0.2106
      4 C         138.6864  144.6985  164.9420 C.3     1  UNL1        0.4197
      5 F         138.5660  145.4500  166.2346 F       1  UNL1       -0.1676
      6 F         140.1399  145.0614  164.8664 F       1  UNL1       -0.1676
      7 F         137.2329  144.3357  165.0176 F       1  UNL1       -0.1676
      8 C         138.0667  142.7903  164.2531 C.3     1  UNL1        0.0398
      9 C         138.6077  141.3983  164.1127 C.3     1  UNL1        0.0212
     10 C         137.4200  141.0208  163.2779 C.3     1  UNL1        0.0044
     11 C         139.7955  141.7758  164.9474 C.3     1  UNL1        0.0044
     12 C         138.0169  139.3403  166.2140 C.3     1  UNL1        0.0307
     13 C         138.8534  138.9774  165.0229 C.ar    1  UNL1       -0.0257
     14 C         139.3945  137.5854  164.8825 C.ar    1  UNL1       -0.0023
     15 C         140.2309  137.2225  163.6915 C.ar    1  UNL1        0.0293
     16 C         140.5263  138.2515  162.6408 C.ar    1  UNL1        0.1398
     17 F         141.3628  137.8885  161.4498 F       1  UNL1       -0.2042
     18 C         139.9853  139.6434  162.7812 C.ar    1  UNL1        0.0250
     19 C         139.1488  140.0064  163.9723 C.ar    1  UNL1       -0.0244
     20 C         139.5467  145.1038  163.0458 C.3     1  UNL1        0.0811
     21 C         140.2014  144.9574  161.7043 C.2     1  UNL1        0.0613
     22 C         139.8122  145.6813  160.4494 C.2     1  UNL1        0.0160
     23 C         140.7306  145.2327  159.3516 C.2     1  UNL1        0.0182
     24 C         140.8192  145.6065  157.9016 C.2     1  UNL1        0.0200
     25 C         141.8647  144.9791  157.0278 C.2     1  UNL1        0.0765
     26 N         142.8215  143.9779  157.6041 N.2     1  UNL1       -0.2639
     27 C         142.7329  143.6041  159.0541 C.3     1  UNL1        0.1707
     28 C         141.6875  144.2315  159.9278 C.2     1  UNL1        0.0832
     29 N         141.3604  144.0613  161.3819 N.2     1  UNL1       -0.2519
     30 C         141.9533  145.3529  155.5779 C.ar    1  UNL1        0.0172
     31 C         140.9012  146.2279  154.9633 C.ar    1  UNL1        0.0015
     32 C         140.9898  146.6017  153.5133 C.ar    1  UNL1        0.0000
     33 C         142.1305  146.1005  152.6779 C.ar    1  UNL1        0.0000
     34 C         143.1824  145.2256  153.2925 C.ar    1  UNL1        0.0000
     35 C         143.0938  144.8518  154.7425 C.ar    1  UNL1        0.0015
@<TRIPOS>BOND
     1    12    13    1
     2    13    14   ar
     3    14    15   ar
     4    15    16   ar
     5    16    17    1
     6    16    18   ar
     7    18    19   ar
     8    19     9    1
     9     9    10    1
    10     9    11    1
    11     9     8    1
    12     8     1    1
    13     1     2    1
    14     1    20    1
    15    20    21    1
    16    21    22    2
    17    22    23    1
    18    23    24    2
    19    24    25    1
    20    25    30    1
    21    30    31   ar
    22    31    32   ar
    23    32    33   ar
    24    33    34   ar
    25    34    35   ar
    26    25    26    2
    27    26    27    1
    28    27    28    1
    29    28    29    2
    30     1     4    1
    31     4     5    1
    32     4     6    1
    33     4     7    1
    34    19    13   ar
    35    29    21    1
    36    28    23    1
    37    35    30   ar
    38     2     3    1
@<TRIPOS>MOLECULE
*****
 35 38 0 0 0
SMALL
GASTEIGER

@<TRIPOS>ATOM
      1 C         141.9307  142.9006  164.0677 C.3     1  UNL1        0.1812
      2 O         141.4079  141.4954  164.0243 O.3     1  UNL1       -0.3784
      3 H         141.5949  141.0547  164.8680 H       1  UNL1        0.2106
      4 C         142.4536  144.3059  164.1111 C.3     1  UNL1        0.4197
      5 F         142.9764  145.7112  164.1545 F       1  UNL1       -0.1676
      6 F         141.1450  144.8092  163.5778 F       1  UNL1       -0.1676
      7 F         143.7621  143.8026  164.6443 F       1  UNL1       -0.1676
      8 C         142.4222  142.6746  165.4668 C.3     1  UNL1        0.0398
      9 C         141.5210  142.0418  166.4853 C.3     1  UNL1        0.0212
     10 C         142.5598  140.9935  166.7532 C.3     1  UNL1        0.0044
     11 C         140.4821  143.0902  166.2174 C.3     1  UNL1        0.0044
     12 C         141.6559  142.9105  169.3536 C.3     1  UNL1        0.0307
     13 C         140.6871  141.8433  168.9379 C.ar    1  UNL1       -0.0257
     14 C         139.7859  141.2105  169.9564 C.ar    1  UNL1       -0.0023
     15 C         138.8172  140.1434  169.5407 C.ar    1  UNL1        0.0293
     16 C         138.7497  139.7090  168.1065 C.ar    1  UNL1        0.1398
     17 F         137.7810  138.6419  167.6908 F       1  UNL1       -0.2042
     18 C         139.6510  140.3418  167.0880 C.ar    1  UNL1        0.0250
     19 C         140.6197  141.4090  167.5038 C.ar    1  UNL1       -0.0244
     20 C         141.4393  143.1267  162.6687 C.3     1  UNL1        0.0811
     21 C         142.1851  142.5387  161.5077 C.2     1  UNL1        0.0613
     22 C         143.0182  143.2990  160.5187 C.2     1  UNL1        0.0160
     23 C         143.5768  142.3174  159.5315 C.2     1  UNL1        0.0182
     24 C         144.4667  142.4917  158.3366 C.2     1  UNL1        0.0200
     25 C         144.8686  141.2990  157.5205 C.2     1  UNL1        0.0765
     26 N         144.3808  139.9321  157.8993 N.2     1  UNL1       -0.2639
     27 C         143.4910  139.7578  159.0942 C.3     1  UNL1        0.1707
     28 C         143.0890  140.9504  159.9103 C.2     1  UNL1        0.0832
     29 N         142.2288  141.0872  161.1317 N.2     1  UNL1       -0.2519
     30 C         145.7585  141.4733  156.3256 C.ar    1  UNL1        0.0172
     31 C         147.0227  142.2723  156.4420 C.ar    1  UNL1        0.0015
     32 C         147.9125  142.4466  155.2471 C.ar    1  UNL1        0.0000
     33 C         147.5381  141.8219  153.9357 C.ar    1  UNL1        0.0000
     34 C         146.2740  141.0229  153.8193 C.ar    1  UNL1        0.0000
     35 C         145.3842  140.8486  155.0142 C.ar    1  UNL1        0.0015
@<TRIPOS>BOND
     1    12    13    1
     2    13    14   ar
     3    14    15   ar
     4    15    16   ar
     5    16    17    1
     6    16    18   ar
     7    18    19   ar
     8    19     9    1
     9     9    10    1
    10     9    11    1
    11     9     8    1
    12     8     1    1
    13     1     2    1
    14     1    20    1
    15    20    21    1
    16    21    22    2
    17    22    23    1
    18    23    24    2
    19    24    25    1
    20    25    30    1
    21    30    31   ar
    22    31    32   ar
    23    32    33   ar
    24    33    34   ar
    25    34    35   ar
    26    25    26    2
    27    26    27    1
    28    27    28    1
    29    28    29    2
    30     1     4    1
    31     4     5    1
    32     4     6    1
    33     4     7    1
    34    19    13   ar
    35    29    21    1
    36    28    23    1
    37    35    30   ar
    38     2     3    1
@<TRIPOS>MOLECULE
*****
 35 38 0 0 0
SMALL
GASTEIGER

@<TRIPOS>ATOM
      1 C         138.6524  144.0477  163.6640 C.3     1  UNL1        0.1812
      2 O         138.6560  143.3003  162.3635 O.3     1  UNL1       -0.3784
      3 H         138.1296  142.4907  162.4544 H       1  UNL1        0.2106
      4 C         138.6487  144.7951  164.9646 C.3     1  UNL1        0.4197
      5 F         138.6450  145.5424  166.2651 F       1  UNL1       -0.1676
      6 F         140.1237  145.0338  164.8316 F       1  UNL1       -0.1676
      7 F         137.1738  144.5564  165.0976 F       1  UNL1       -0.1676
      8 C         137.7875  142.9840  164.2729 C.3     1  UNL1        0.0398
      9 C         138.2992  141.5791  164.3930 C.3     1  UNL1        0.0212
     10 C         139.2552  142.0186  165.4620 C.3     1  UNL1        0.0044
     11 C         137.3432  141.1396  163.3239 C.3     1  UNL1        0.0044
     12 C         140.7130  140.7231  162.8305 C.3     1  UNL1        0.0307
     13 C         140.0177  139.7462  163.7318 C.ar    1  UNL1       -0.0257
     14 C         140.5294  138.3413  163.8519 C.ar    1  UNL1       -0.0023
     15 C         139.8342  137.3643  164.7531 C.ar    1  UNL1        0.0293
     16 C         138.6273  137.7923  165.5344 C.ar    1  UNL1        0.1398
     17 F         137.9321  136.8153  166.4356 F       1  UNL1       -0.2042
     18 C         138.1156  139.1972  165.4143 C.ar    1  UNL1        0.0250
     19 C         138.8109  140.1742  164.5130 C.ar    1  UNL1       -0.0244
     20 C         139.5172  145.1114  163.0552 C.3     1  UNL1        0.0811
     21 C         140.1657  144.8790  161.7228 C.2     1  UNL1        0.0613
     22 C         141.3316  143.9738  161.4555 C.2     1  UNL1        0.0160
     23 C         141.6487  144.0464  159.9913 C.2     1  UNL1        0.0182
     24 C         142.6953  143.3701  159.1562 C.2     1  UNL1        0.0200
     25 C         142.7721  143.6439  157.6834 C.2     1  UNL1        0.0765
     26 N         141.8022  144.5939  157.0456 N.2     1  UNL1       -0.2639
     27 C         140.7556  145.2702  157.8807 C.3     1  UNL1        0.1707
     28 C         140.6788  144.9964  159.3534 C.2     1  UNL1        0.0832
     29 N         139.7622  145.5110  160.4236 N.2     1  UNL1       -0.2519
     30 C         143.8187  142.9677  156.8483 C.ar    1  UNL1        0.0172
     31 C         145.0568  142.4213  157.4954 C.ar    1  UNL1        0.0015
     32 C         146.1034  141.7451  156.6604 C.ar    1  UNL1        0.0000
     33 C         145.9119  141.6152  155.1783 C.ar    1  UNL1        0.0000
     34 C         144.6738  142.1615  154.5313 C.ar    1  UNL1        0.0000
     35 C         143.6272  142.8378  155.3663 C.ar    1  UNL1        0.0015
@<TRIPOS>BOND
     1    12    13    1
     2    13    14   ar
     3    14    15   ar
     4    15    16   ar
     5    16    17    1
     6    16    18   ar
     7    18    19   ar
     8    19     9    1
     9     9    10    1
    10     9    11    1
    11     9     8    1
    12     8     1    1
    13     1     2    1
    14     1    20    1
    15    20    21    1
    16    21    22    2
    17    22    23    1
    18    23    24    2
    19    24    25    1
    20    25    30    1
    21    30    31   ar
    22    31    32   ar
    23    32    33   ar
    24    33    34   ar
    25    34    35   ar
    26    25    26    2
    27    26    27    1
    28    27    28    1
    29    28    29    2
    30     1     4    1
    31     4     5    1
    32     4     6    1
    33     4     7    1
    34    19    13   ar
    35    29    21    1
    36    28    23    1
    37    35    30   ar
    38     2     3    1
@<TRIPOS>MOLECULE
*****
 35 38 0 0 0
SMALL
GASTEIGER

@<TRIPOS>ATOM
      1 C         138.6384  143.9507  163.6762 C.3     1  UNL1        0.1812
      2 O         138.6570  143.1995  162.3781 O.3     1  UNL1       -0.3784
      3 H         138.2436  142.3307  162.5013 H       1  UNL1        0.2106
      4 C         138.6199  144.7018  164.9744 C.3     1  UNL1        0.4197
      5 F         138.6014  145.4531  166.2727 F       1  UNL1       -0.1676
      6 F         137.1632  144.3835  165.1379 F       1  UNL1       -0.1676
      7 F         140.0766  145.0202  164.8110 F       1  UNL1       -0.1676
      8 C         137.9539  142.7912  164.3374 C.3     1  UNL1        0.0398
      9 C         138.4873  141.4013  164.1539 C.3     1  UNL1        0.0212
     10 C         137.3159  141.0674  163.2785 C.3     1  UNL1        0.0044
     11 C         139.6587  141.7353  165.0293 C.3     1  UNL1        0.0044
     12 C         137.9956  139.3163  166.2542 C.3     1  UNL1        0.0307
     13 C         138.7749  138.9690  165.0204 C.ar    1  UNL1       -0.0257
     14 C         139.3083  137.5791  164.8368 C.ar    1  UNL1       -0.0023
     15 C         140.0876  137.2317  163.6032 C.ar    1  UNL1        0.0293
     16 C         140.3335  138.2742  162.5530 C.ar    1  UNL1        0.1398
     17 F         141.1127  137.9268  161.3193 F       1  UNL1       -0.2042
     18 C         139.8000  139.6640  162.7365 C.ar    1  UNL1        0.0250
     19 C         139.0207  140.0114  163.9703 C.ar    1  UNL1       -0.0244
     20 C         139.3229  145.1101  163.0151 C.3     1  UNL1        0.0811
     21 C         140.0165  144.9202  161.6987 C.2     1  UNL1        0.0613
     22 C         141.1515  143.9776  161.4280 C.2     1  UNL1        0.0160
     23 C         141.5334  144.1144  159.9839 C.2     1  UNL1        0.0182
     24 C         142.5836  143.4363  159.1548 C.2     1  UNL1        0.0200
     25 C         142.7347  143.7855  157.7038 C.2     1  UNL1        0.0765
     26 N         141.8357  144.8127  157.0820 N.2     1  UNL1       -0.2639
     27 C         140.7856  145.4908  157.9111 C.3     1  UNL1        0.1707
     28 C         140.6344  145.1416  159.3620 C.2     1  UNL1        0.0832
     29 N         139.6969  145.6396  160.4219 N.2     1  UNL1       -0.2519
     30 C         143.7849  143.1075  156.8747 C.ar    1  UNL1        0.0172
     31 C         143.7182  143.1756  155.3777 C.ar    1  UNL1        0.0015
     32 C         144.7684  142.4975  154.5486 C.ar    1  UNL1        0.0000
     33 C         145.8852  141.7514  155.2165 C.ar    1  UNL1        0.0000
     34 C         145.9519  141.6834  156.7134 C.ar    1  UNL1        0.0000
     35 C         144.9017  142.3614  157.5425 C.ar    1  UNL1        0.0015
@<TRIPOS>BOND
     1    12    13    1
     2    13    14   ar
     3    14    15   ar
     4    15    16   ar
     5    16    17    1
     6    16    18   ar
     7    18    19   ar
     8    19     9    1
     9     9    10    1
    10     9    11    1
    11     9     8    1
    12     8     1    1
    13     1     2    1
    14     1    20    1
    15    20    21    1
    16    21    22    2
    17    22    23    1
    18    23    24    2
    19    24    25    1
    20    25    30    1
    21    30    31   ar
    22    31    32   ar
    23    32    33   ar
    24    33    34   ar
    25    34    35   ar
    26    25    26    2
    27    26    27    1
    28    27    28    1
    29    28    29    2
    30     1     4    1
    31     4     5    1
    32     4     6    1
    33     4     7    1
    34    19    13   ar
    35    29    21    1
    36    28    23    1
    37    35    30   ar
    38     2     3    1
@<TRIPOS>MOLECULE
*****
 35 38 0 0 0
SMALL
GASTEIGER

@<TRIPOS>ATOM
      1 C         143.6812  140.3429  163.2840 C.3     1  UNL1        0.1812
      2 O         142.3691  139.6399  163.0992 O.3     1  UNL1       -0.3784
      3 H         142.1520  139.1437  163.9039 H       1  UNL1        0.2106
      4 C         144.9933  141.0458  163.4688 C.3     1  UNL1        0.4197
      5 F         146.3054  141.7489  163.6536 F       1  UNL1       -0.1676
      6 F         145.5611  139.8164  164.1140 F       1  UNL1       -0.1676
      7 F         144.4255  142.2752  162.8236 F       1  UNL1       -0.1676
      8 C         143.7890  139.7775  164.6692 C.3     1  UNL1        0.0398
      9 C         142.5924  139.7755  165.5737 C.3     1  UNL1        0.0212
     10 C         142.4633  141.2605  165.4062 C.3     1  UNL1        0.0044
     11 C         142.7215  138.2904  165.7412 C.3     1  UNL1        0.0044
     12 C         142.9162  140.3957  168.4910 C.3     1  UNL1        0.0307
     13 C         141.5577  140.0836  167.9368 C.ar    1  UNL1       -0.0257
     14 C         140.3611  140.0816  168.8413 C.ar    1  UNL1       -0.0023
     15 C         139.0026  139.7695  168.2872 C.ar    1  UNL1        0.0293
     16 C         138.8407  139.4594  166.8285 C.ar    1  UNL1        0.1398
     17 F         137.4822  139.1473  166.2744 F       1  UNL1       -0.2042
     18 C         140.0373  139.4614  165.9240 C.ar    1  UNL1        0.0250
     19 C         141.3958  139.7735  166.4782 C.ar    1  UNL1       -0.0244
     20 C         143.5734  140.9083  161.8989 C.3     1  UNL1        0.0811
     21 C         142.9138  140.1113  160.8127 C.2     1  UNL1        0.0613
     22 C         143.5998  139.1634  159.8741 C.2     1  UNL1        0.0160
     23 C         142.5625  138.5885  158.9557 C.2     1  UNL1        0.0182
     24 C         142.6549  137.6019  157.8296 C.2     1  UNL1        0.0200
     25 C         141.4201  137.2079  157.0744 C.2     1  UNL1        0.0765
     26 N         140.0930  137.8005  157.4454 N.2     1  UNL1       -0.2639
     27 C         140.0006  138.7870  158.5716 C.3     1  UNL1        0.1707
     28 C         141.2353  139.1810  159.3267 C.2     1  UNL1        0.0832
     29 N         141.4525  140.1222  160.4745 N.2     1  UNL1       -0.2519
     30 C         141.5125  136.2214  155.9483 C.ar    1  UNL1        0.0172
     31 C         142.3399  134.9800  156.1047 C.ar    1  UNL1        0.0015
     32 C         142.4323  133.9935  154.9785 C.ar    1  UNL1        0.0000
     33 C         141.6973  134.2484  153.6959 C.ar    1  UNL1        0.0000
     34 C         140.8700  135.4898  153.5396 C.ar    1  UNL1        0.0000
     35 C         140.7776  136.4763  154.6657 C.ar    1  UNL1        0.0015
@<TRIPOS>BOND
     1    12    13    1
     2    13    14   ar
     3    14    15   ar
     4    15    16   ar
     5    16    17    1
     6    16    18   ar
     7    18    19   ar
     8    19     9    1
     9     9    10    1
    10     9    11    1
    11     9     8    1
    12     8     1    1
    13     1     2    1
    14     1    20    1
    15    20    21    1
    16    21    22    2
    17    22    23    1
    18    23    24    2
    19    24    25    1
    20    25    30    1
    21    30    31   ar
    22    31    32   ar
    23    32    33   ar
    24    33    34   ar
    25    34    35   ar
    26    25    26    2
    27    26    27    1
    28    27    28    1
    29    28    29    2
    30     1     4    1
    31     4     5    1
    32     4     6    1
    33     4     7    1
    34    19    13   ar
    35    29    21    1
    36    28    23    1
    37    35    30   ar
    38     2     3    1
@<TRIPOS>MOLECULE
*****
 35 38 0 0 0
SMALL
GASTEIGER

@<TRIPOS>ATOM
      1 C         139.4300  139.6629  165.2823 C.3     1  UNL1        0.1812
      2 O         140.0457  141.0046  165.0170 O.3     1  UNL1       -0.3784
      3 H         140.8663  141.0904  165.5271 H       1  UNL1        0.2106
      4 C         138.8142  138.3211  165.5477 C.3     1  UNL1        0.4197
      5 F         138.1984  136.9793  165.8131 F       1  UNL1       -0.1676
      6 F         140.1121  137.6560  165.1965 F       1  UNL1       -0.1676
      7 F         137.5164  138.9861  165.8989 F       1  UNL1       -0.1676
      8 C         140.5582  139.3291  166.2129 C.3     1  UNL1        0.0398
      9 C         140.8268  140.1961  167.4071 C.3     1  UNL1        0.0212
     10 C         139.4661  139.8719  167.9486 C.3     1  UNL1        0.0044
     11 C         142.1876  140.5204  166.8655 C.3     1  UNL1        0.0044
     12 C         142.3593  139.1005  169.7419 C.3     1  UNL1        0.0307
     13 C         141.8617  140.5153  169.7686 C.ar    1  UNL1       -0.0257
     14 C         142.1304  141.3823  170.9629 C.ar    1  UNL1       -0.0023
     15 C         141.6328  142.7971  170.9897 C.ar    1  UNL1        0.0293
     16 C         140.8666  143.3450  169.8223 C.ar    1  UNL1        0.1398
     17 F         140.3690  144.7598  169.8491 F       1  UNL1       -0.2042
     18 C         140.5979  142.4780  168.6281 C.ar    1  UNL1        0.0250
     19 C         141.0955  141.0631  168.6013 C.ar    1  UNL1       -0.0244
     20 C         138.3018  139.9966  164.3518 C.3     1  UNL1        0.0811
     21 C         138.4672  139.8042  162.8735 C.2     1  UNL1        0.0613
     22 C         139.3769  138.8134  162.2095 C.2     1  UNL1        0.0160
     23 C         139.2238  138.9657  160.7251 C.2     1  UNL1        0.0182
     24 C         139.8691  138.2566  159.5716 C.2     1  UNL1        0.0200
     25 C         139.5101  138.6325  158.1644 C.2     1  UNL1        0.0765
     26 N         138.5058  139.7174  157.9110 N.2     1  UNL1       -0.2639
     27 C         137.8605  140.4265  159.0645 C.3     1  UNL1        0.1707
     28 C         138.2194  140.0506  160.4716 C.2     1  UNL1        0.0832
     29 N         137.7518  140.5689  161.7994 N.2     1  UNL1       -0.2519
     30 C         140.1555  137.9234  157.0109 C.ar    1  UNL1        0.0172
     31 C         141.5974  137.5179  157.0916 C.ar    1  UNL1        0.0015
     32 C         142.2428  136.8088  155.9380 C.ar    1  UNL1        0.0000
     33 C         141.4462  136.5053  154.7037 C.ar    1  UNL1        0.0000
     34 C         140.0043  136.9108  154.6231 C.ar    1  UNL1        0.0000
     35 C         139.3590  137.6199  155.7766 C.ar    1  UNL1        0.0015
@<TRIPOS>BOND
     1    12    13    1
     2    13    14   ar
     3    14    15   ar
     4    15    16   ar
     5    16    17    1
     6    16    18   ar
     7    18    19   ar
     8    19     9    1
     9     9    10    1
    10     9    11    1
    11     9     8    1
    12     8     1    1
    13     1     2    1
    14     1    20    1
    15    20    21    1
    16    21    22    2
    17    22    23    1
    18    23    24    2
    19    24    25    1
    20    25    30    1
    21    30    31   ar
    22    31    32   ar
    23    32    33   ar
    24    33    34   ar
    25    34    35   ar
    26    25    26    2
    27    26    27    1
    28    27    28    1
    29    28    29    2
    30     1     4    1
    31     4     5    1
    32     4     6    1
    33     4     7    1
    34    19    13   ar
    35    29    21    1
    36    28    23    1
    37    35    30   ar
    38     2     3    1
