@<TRIPOS>MOLECULE
*****
 36 39 0 0 0
SMALL
GASTEIGER

@<TRIPOS>ATOM
      1 C         142.8093  140.0507  159.5754 C.ar    1  UNL1        0.1194
      2 C         143.3920  139.3925  160.7908 C.ar    1  UNL1        0.1452
      3 N         144.5744  138.4795  160.6550 N.pl3   1  UNL1       -0.3415
      4 N         142.7924  139.6473  162.1419 N.ar    1  UNL1       -0.1940
      5 C         141.6101  140.5603  162.2777 C.ar    1  UNL1        0.2554
      6 N         141.0273  141.2185  161.0623 N.ar    1  UNL1       -0.1940
      7 C         141.6269  140.9637  159.7111 C.ar    1  UNL1        0.1452
      8 N         141.0441  141.6219  158.4958 N.pl3   1  UNL1       -0.3415
      9 H         144.9679  138.3123  159.7682 H       1  UNL1        0.1438
     10 H         144.9569  138.0475  161.4527 H       1  UNL1        0.1438
     11 H         140.2681  142.2211  158.5850 H       1  UNL1        0.1438
     12 H         141.4376  141.4546  157.6090 H       1  UNL1        0.1438
     13 N         141.0105  140.8151  163.6288 N.ar    1  UNL1       -0.1967
     14 N         141.2333  142.0320  164.4770 N.ar    1  UNL1       -0.1666
     15 C         140.4433  141.8667  165.7413 C.ar    1  UNL1        0.0849
     16 C         139.7323  140.5476  165.6746 C.ar    1  UNL1        0.0331
     17 C         138.8110  139.8543  166.6340 C.ar    1  UNL1       -0.0015
     18 C         138.2403  138.5111  166.2878 C.ar    1  UNL1       -0.0217
     19 C         137.3189  137.8177  167.2472 C.3     1  UNL1        0.0310
     20 C         138.5908  137.8611  164.9822 C.ar    1  UNL1       -0.0027
     21 C         139.5121  138.5544  164.0228 C.ar    1  UNL1        0.0190
     22 C         140.0829  139.8976  164.3690 C.ar    1  UNL1        0.0870
     23 C         140.3760  142.8482  166.8737 C.3     1  UNL1        0.0762
     24 C         141.0415  142.5324  168.1805 C.ar    1  UNL1        0.0113
     25 C         140.2166  142.3756  169.4235 C.ar    1  UNL1       -0.0017
     26 C         140.8819  142.0599  170.7302 C.ar    1  UNL1       -0.0002
     27 C         142.3721  141.9008  170.7939 C.ar    1  UNL1        0.0023
     28 C         143.1969  142.0575  169.5509 C.ar    1  UNL1        0.0293
     29 C         142.5316  142.3733  168.2442 C.ar    1  UNL1        0.1365
     30 F         143.3564  142.5300  167.0011 F       1  UNL1       -0.2045
     31 C         142.9376  138.6333  157.4018 C.2     1  UNL1        0.4090
     32 O         141.8668  137.7257  157.9304 O.2     1  UNL1       -0.2258
     33 N         143.4089  139.7958  158.2243 N.am    1  UNL1       -0.2181
     34 C         144.4797  140.7035  157.6956 C.3     1  UNL1        0.1237
     35 C         143.9659  136.9925  155.6696 C.3     1  UNL1        0.2574
     36 O         143.5372  138.3784  156.0506 O.3     1  UNL1       -0.4302
@<TRIPOS>BOND
     1    35    36    1
     2    36    31    1
     3    31    32    2
     4    31    33   am
     5    33    34    1
     6    33     1    1
     7     1     2   ar
     8     2     3    1
     9     2     4   ar
    10     4     5   ar
    11     5    13    1
    12    13    14   ar
    13    14    15   ar
    14    15    23    1
    15    23    24    1
    16    24    25   ar
    17    25    26   ar
    18    26    27   ar
    19    27    28   ar
    20    28    29   ar
    21    29    30    1
    22    15    16   ar
    23    16    17   ar
    24    17    18   ar
    25    18    19    1
    26    18    20   ar
    27    20    21   ar
    28    21    22   ar
    29     5     6   ar
    30     6     7   ar
    31     7     8    1
    32     7     1   ar
    33    22    13   ar
    34    29    24   ar
    35    22    16   ar
    36     3     9    1
    37     3    10    1
    38     8    11    1
    39     8    12    1
@<TRIPOS>MOLECULE
*****
 36 39 0 0 0
SMALL
GASTEIGER

@<TRIPOS>ATOM
      1 C         142.9655  140.6293  159.6973 C.ar    1  UNL1        0.1194
      2 C         141.8597  141.6205  159.9090 C.ar    1  UNL1        0.1452
      3 N         141.3745  142.4587  158.7636 N.pl3   1  UNL1       -0.3415
      4 N         141.2392  141.7734  161.2660 N.ar    1  UNL1       -0.1940
      5 C         141.7243  140.9352  162.4114 C.ar    1  UNL1        0.2554
      6 N         142.8302  139.9440  162.1997 N.ar    1  UNL1       -0.1940
      7 C         143.4507  139.7910  160.8427 C.ar    1  UNL1        0.1452
      8 N         144.5565  138.7999  160.6311 N.pl3   1  UNL1       -0.3415
      9 H         141.7818  142.3583  157.8730 H       1  UNL1        0.1438
     10 H         140.6488  143.1093  158.9025 H       1  UNL1        0.1438
     11 H         144.8749  138.2497  161.3829 H       1  UNL1        0.1438
     12 H         144.9638  138.6995  159.7405 H       1  UNL1        0.1438
     13 N         141.1038  141.0881  163.7684 N.ar    1  UNL1       -0.1967
     14 N         141.3032  142.2435  164.7040 N.ar    1  UNL1       -0.1666
     15 C         140.4975  141.9819  165.9419 C.ar    1  UNL1        0.0849
     16 C         139.8001  140.6649  165.7714 C.ar    1  UNL1        0.0331
     17 C         138.8723  139.8973  166.6657 C.ar    1  UNL1       -0.0015
     18 C         138.3192  138.5773  166.2168 C.ar    1  UNL1       -0.0217
     19 C         137.3913  137.8096  167.1111 C.3     1  UNL1        0.0310
     20 C         138.6939  138.0249  164.8735 C.ar    1  UNL1       -0.0027
     21 C         139.6217  138.7925  163.9791 C.ar    1  UNL1        0.0190
     22 C         140.1748  140.1125  164.4281 C.ar    1  UNL1        0.0870
     23 C         140.4054  142.8797  167.1400 C.3     1  UNL1        0.0762
     24 C         141.0028  142.4498  168.4471 C.ar    1  UNL1        0.0113
     25 C         140.1131  142.1639  169.6204 C.ar    1  UNL1       -0.0017
     26 C         140.7104  141.7340  170.9275 C.ar    1  UNL1       -0.0002
     27 C         142.1974  141.5900  171.0612 C.ar    1  UNL1        0.0023
     28 C         143.0871  141.8759  169.8879 C.ar    1  UNL1        0.0293
     29 C         142.4899  142.3058  168.5808 C.ar    1  UNL1        0.1365
     30 F         143.3796  142.5917  167.4075 F       1  UNL1       -0.2045
     31 C         144.6556  141.4282  157.8932 C.2     1  UNL1        0.4090
     32 O         145.1047  142.5330  158.8031 O.2     1  UNL1       -0.2258
     33 N         143.5861  140.4764  158.3403 N.am    1  UNL1       -0.2181
     34 C         143.1371  139.3716  157.4304 C.3     1  UNL1        0.1237
     35 C         146.2975  142.2667  156.0625 C.3     1  UNL1        0.2574
     36 O         145.2763  141.2754  156.5362 O.3     1  UNL1       -0.4302
@<TRIPOS>BOND
     1    35    36    1
     2    36    31    1
     3    31    32    2
     4    31    33   am
     5    33    34    1
     6    33     1    1
     7     1     2   ar
     8     2     3    1
     9     2     4   ar
    10     4     5   ar
    11     5    13    1
    12    13    14   ar
    13    14    15   ar
    14    15    23    1
    15    23    24    1
    16    24    25   ar
    17    25    26   ar
    18    26    27   ar
    19    27    28   ar
    20    28    29   ar
    21    29    30    1
    22    15    16   ar
    23    16    17   ar
    24    17    18   ar
    25    18    19    1
    26    18    20   ar
    27    20    21   ar
    28    21    22   ar
    29     5     6   ar
    30     6     7   ar
    31     7     8    1
    32     7     1   ar
    33    22    13   ar
    34    29    24   ar
    35    22    16   ar
    36     3     9    1
    37     3    10    1
    38     8    11    1
    39     8    12    1
@<TRIPOS>MOLECULE
*****
 36 39 0 0 0
SMALL
GASTEIGER

@<TRIPOS>ATOM
      1 C         140.5847  144.8376  157.3959 C.ar    1  UNL1        0.1194
      2 C         141.7040  145.3483  158.2541 C.ar    1  UNL1        0.1452
      3 N         142.6483  146.3829  157.7176 N.pl3   1  UNL1       -0.3415
      4 N         141.8789  144.8244  159.6487 N.ar    1  UNL1       -0.1940
      5 C         140.9347  143.7898  160.1851 C.ar    1  UNL1        0.2554
      6 N         139.8153  143.2791  159.3270 N.ar    1  UNL1       -0.1940
      7 C         139.6404  143.8030  157.9324 C.ar    1  UNL1        0.1452
      8 N         138.5211  143.2923  157.0743 N.pl3   1  UNL1       -0.3415
      9 H         142.5335  146.7268  156.8023 H       1  UNL1        0.1438
     10 H         143.3830  146.7181  158.2808 H       1  UNL1        0.1438
     11 H         137.9013  142.6132  157.4264 H       1  UNL1        0.1438
     12 H         138.4063  143.6361  156.1590 H       1  UNL1        0.1438
     13 N         141.1096  143.2658  161.5797 N.ar    1  UNL1       -0.1967
     14 N         140.2297  143.5749  162.7545 N.ar    1  UNL1       -0.1666
     15 C         140.7715  142.8409  163.9452 C.ar    1  UNL1        0.0849
     16 C         141.9862  142.0782  163.5063 C.ar    1  UNL1        0.0331
     17 C         142.9290  141.1785  164.2490 C.ar    1  UNL1       -0.0015
     18 C         144.0809  140.5415  163.5297 C.ar    1  UNL1       -0.0217
     19 C         145.0238  139.6417  164.2723 C.3     1  UNL1        0.0310
     20 C         144.2898  140.8041  162.0677 C.ar    1  UNL1       -0.0027
     21 C         143.3470  141.7038  161.3250 C.ar    1  UNL1        0.0190
     22 C         142.1952  142.3408  162.0443 C.ar    1  UNL1        0.0870
     23 C         140.1990  142.8653  165.3315 C.3     1  UNL1        0.0762
     24 C         139.6338  141.6121  165.9317 C.ar    1  UNL1        0.0113
     25 C         138.6522  140.7852  165.1553 C.ar    1  UNL1       -0.0017
     26 C         138.0870  139.5321  165.7554 C.ar    1  UNL1       -0.0002
     27 C         138.5034  139.1059  167.1320 C.ar    1  UNL1        0.0023
     28 C         139.4849  139.9328  167.9084 C.ar    1  UNL1        0.0293
     29 C         140.0502  141.1859  167.3083 C.ar    1  UNL1        0.1365
     30 F         141.0317  142.0128  168.0846 F       1  UNL1       -0.2045
     31 C         139.6595  146.6394  155.7689 C.2     1  UNL1        0.4090
     32 O         139.0841  147.3933  156.9310 O.2     1  UNL1       -0.2258
     33 N         140.4098  145.3616  156.0013 N.am    1  UNL1       -0.2181
     34 C         140.9852  144.6076  154.8392 C.3     1  UNL1        0.1237
     35 C         139.7755  148.6036  154.0722 C.3     1  UNL1        0.2574
     36 O         139.4845  147.1634  154.3743 O.3     1  UNL1       -0.4302
@<TRIPOS>BOND
     1    35    36    1
     2    36    31    1
     3    31    32    2
     4    31    33   am
     5    33    34    1
     6    33     1    1
     7     1     2   ar
     8     2     3    1
     9     2     4   ar
    10     4     5   ar
    11     5    13    1
    12    13    14   ar
    13    14    15   ar
    14    15    23    1
    15    23    24    1
    16    24    25   ar
    17    25    26   ar
    18    26    27   ar
    19    27    28   ar
    20    28    29   ar
    21    29    30    1
    22    15    16   ar
    23    16    17   ar
    24    17    18   ar
    25    18    19    1
    26    18    20   ar
    27    20    21   ar
    28    21    22   ar
    29     5     6   ar
    30     6     7   ar
    31     7     8    1
    32     7     1   ar
    33    22    13   ar
    34    29    24   ar
    35    22    16   ar
    36     3     9    1
    37     3    10    1
    38     8    11    1
    39     8    12    1
@<TRIPOS>MOLECULE
*****
 36 39 0 0 0
SMALL
GASTEIGER

@<TRIPOS>ATOM
      1 C         140.5672  144.8881  157.3387 C.ar    1  UNL1        0.1194
      2 C         139.6283  143.8451  157.8684 C.ar    1  UNL1        0.1452
      3 N         138.5151  143.3301  157.0050 N.pl3   1  UNL1       -0.3415
      4 N         139.8026  143.3172  159.2616 N.ar    1  UNL1       -0.1940
      5 C         140.9157  143.8321  160.1251 C.ar    1  UNL1        0.2554
      6 N         141.8547  144.8752  159.5953 N.ar    1  UNL1       -0.1940
      7 C         141.6804  145.4031  158.2022 C.ar    1  UNL1        0.1452
      8 N         142.6194  146.4461  157.6725 N.pl3   1  UNL1       -0.3415
      9 H         138.4008  143.6766  156.0906 H       1  UNL1        0.1438
     10 H         137.8989  142.6455  157.3527 H       1  UNL1        0.1438
     11 H         143.3500  146.7841  158.2393 H       1  UNL1        0.1438
     12 H         142.5050  146.7926  156.7581 H       1  UNL1        0.1438
     13 N         141.0900  143.3042  161.5183 N.ar    1  UNL1       -0.1967
     14 N         140.2233  143.6284  162.6988 N.ar    1  UNL1       -0.1666
     15 C         140.7592  142.8840  163.8856 C.ar    1  UNL1        0.0849
     16 C         141.9572  142.0997  163.4386 C.ar    1  UNL1        0.0331
     17 C         142.8882  141.1825  164.1747 C.ar    1  UNL1       -0.0015
     18 C         144.0237  140.5252  163.4478 C.ar    1  UNL1       -0.0217
     19 C         144.9548  139.6080  164.1839 C.3     1  UNL1        0.0310
     20 C         144.2281  140.7849  161.9846 C.ar    1  UNL1       -0.0027
     21 C         143.2970  141.7020  161.2485 C.ar    1  UNL1        0.0190
     22 C         142.1616  142.3594  161.9754 C.ar    1  UNL1        0.0870
     23 C         140.1961  142.9178  165.2755 C.3     1  UNL1        0.0762
     24 C         139.6547  141.6641  165.8961 C.ar    1  UNL1        0.0113
     25 C         138.7011  140.7981  165.1276 C.ar    1  UNL1       -0.0017
     26 C         138.1596  139.5444  165.7482 C.ar    1  UNL1       -0.0002
     27 C         138.5719  139.1567  167.1373 C.ar    1  UNL1        0.0023
     28 C         139.5256  140.0227  167.9058 C.ar    1  UNL1        0.0293
     29 C         140.0670  141.2764  167.2853 C.ar    1  UNL1        0.1365
     30 F         141.0206  142.1423  168.0538 F       1  UNL1       -0.2045
     31 C         139.6526  146.7004  155.7175 C.2     1  UNL1        0.4090
     32 O         139.0865  147.4569  156.8824 O.2     1  UNL1       -0.2258
     33 N         140.3930  145.4160  155.9455 N.am    1  UNL1       -0.2181
     34 C         140.9591  144.6595  154.7805 C.3     1  UNL1        0.1237
     35 C         139.9700  148.6020  153.9757 C.3     1  UNL1        0.2574
     36 O         139.4783  147.2284  154.3243 O.3     1  UNL1       -0.4302
@<TRIPOS>BOND
     1    35    36    1
     2    36    31    1
     3    31    32    2
     4    31    33   am
     5    33    34    1
     6    33     1    1
     7     1     2   ar
     8     2     3    1
     9     2     4   ar
    10     4     5   ar
    11     5    13    1
    12    13    14   ar
    13    14    15   ar
    14    15    23    1
    15    23    24    1
    16    24    25   ar
    17    25    26   ar
    18    26    27   ar
    19    27    28   ar
    20    28    29   ar
    21    29    30    1
    22    15    16   ar
    23    16    17   ar
    24    17    18   ar
    25    18    19    1
    26    18    20   ar
    27    20    21   ar
    28    21    22   ar
    29     5     6   ar
    30     6     7   ar
    31     7     8    1
    32     7     1   ar
    33    22    13   ar
    34    29    24   ar
    35    22    16   ar
    36     3     9    1
    37     3    10    1
    38     8    11    1
    39     8    12    1
@<TRIPOS>MOLECULE
*****
 36 39 0 0 0
SMALL
GASTEIGER

@<TRIPOS>ATOM
      1 C         141.2437  137.8643  156.7949 C.ar    1  UNL1        0.1194
      2 C         142.1841  138.4414  157.8111 C.ar    1  UNL1        0.1452
      3 N         143.6289  138.6467  157.4645 N.pl3   1  UNL1       -0.3415
      4 N         141.6796  138.8132  159.1739 N.ar    1  UNL1       -0.1940
      5 C         140.2348  138.6078  159.5206 C.ar    1  UNL1        0.2554
      6 N         139.2943  138.0307  158.5044 N.ar    1  UNL1       -0.1940
      7 C         139.7988  137.6589  157.1416 C.ar    1  UNL1        0.1452
      8 N         138.8584  137.0818  156.1255 N.pl3   1  UNL1       -0.3415
      9 H         143.9600  138.4027  156.5700 H       1  UNL1        0.1438
     10 H         144.2461  139.0255  158.1314 H       1  UNL1        0.1438
     11 H         137.9101  136.9470  156.3531 H       1  UNL1        0.1438
     12 H         139.1895  136.8378  155.2310 H       1  UNL1        0.1438
     13 N         139.7303  138.9796  160.8834 N.ar    1  UNL1       -0.1967
     14 N         139.6395  138.0659  162.0695 N.ar    1  UNL1       -0.1666
     15 C         139.0811  138.8520  163.2185 C.ar    1  UNL1        0.0849
     16 C         138.8267  140.2516  162.7426 C.ar    1  UNL1        0.0331
     17 C         138.2816  141.4643  163.4368 C.ar    1  UNL1       -0.0015
     18 C         138.1377  142.7559  162.6879 C.ar    1  UNL1       -0.0217
     19 C         137.5926  143.9688  163.3821 C.3     1  UNL1        0.0310
     20 C         138.5389  142.8348  161.2447 C.ar    1  UNL1       -0.0027
     21 C         139.0841  141.6221  160.5504 C.ar    1  UNL1        0.0190
     22 C         139.2280  140.3304  161.2994 C.ar    1  UNL1        0.0870
     23 C         138.8225  138.3302  164.6009 C.3     1  UNL1        0.0762
     24 C         139.4871  138.9734  165.7819 C.ar    1  UNL1        0.0113
     25 C         140.9371  139.3512  165.7128 C.ar    1  UNL1       -0.0017
     26 C         141.6017  139.9943  166.8937 C.ar    1  UNL1       -0.0002
     27 C         140.8162  140.2597  168.1438 C.ar    1  UNL1        0.0023
     28 C         139.3662  139.8820  168.2129 C.ar    1  UNL1        0.0293
     29 C         138.7016  139.2388  167.0320 C.ar    1  UNL1        0.1365
     30 F         137.2516  138.8610  167.1010 F       1  UNL1       -0.2045
     31 C         142.1679  136.0809  155.1472 C.2     1  UNL1        0.4090
     32 O         142.0831  135.0411  156.2249 O.2     1  UNL1       -0.2258
     33 N         141.7482  137.4925  155.4321 N.am    1  UNL1       -0.2181
     34 C         141.8330  138.5323  154.3543 C.3     1  UNL1        0.1237
     35 C         141.7274  135.1535  152.7605 C.3     1  UNL1        0.2574
     36 O         142.6724  135.7090  153.7844 O.3     1  UNL1       -0.4302
@<TRIPOS>BOND
     1    35    36    1
     2    36    31    1
     3    31    32    2
     4    31    33   am
     5    33    34    1
     6    33     1    1
     7     1     2   ar
     8     2     3    1
     9     2     4   ar
    10     4     5   ar
    11     5    13    1
    12    13    14   ar
    13    14    15   ar
    14    15    23    1
    15    23    24    1
    16    24    25   ar
    17    25    26   ar
    18    26    27   ar
    19    27    28   ar
    20    28    29   ar
    21    29    30    1
    22    15    16   ar
    23    16    17   ar
    24    17    18   ar
    25    18    19    1
    26    18    20   ar
    27    20    21   ar
    28    21    22   ar
    29     5     6   ar
    30     6     7   ar
    31     7     8    1
    32     7     1   ar
    33    22    13   ar
    34    29    24   ar
    35    22    16   ar
    36     3     9    1
    37     3    10    1
    38     8    11    1
    39     8    12    1
@<TRIPOS>MOLECULE
*****
 36 39 0 0 0
SMALL
GASTEIGER

@<TRIPOS>ATOM
      1 C         140.5225  145.0455  156.3684 C.ar    1  UNL1        0.1194
      2 C         141.2544  145.2974  157.6532 C.ar    1  UNL1        0.1452
      3 N         142.4200  146.2411  157.6797 N.pl3   1  UNL1       -0.3415
      4 N         140.8207  144.6057  158.9115 N.ar    1  UNL1       -0.1940
      5 C         139.6551  143.6620  158.8851 C.ar    1  UNL1        0.2554
      6 N         138.9231  143.4100  157.6002 N.ar    1  UNL1       -0.1940
      7 C         139.3568  144.1018  156.3419 C.ar    1  UNL1        0.1452
      8 N         138.6249  143.8498  155.0571 N.pl3   1  UNL1       -0.3415
      9 H         142.7047  146.6951  156.8538 H       1  UNL1        0.1438
     10 H         142.9004  146.4065  158.5230 H       1  UNL1        0.1438
     11 H         137.8598  143.2304  155.0398 H       1  UNL1        0.1438
     12 H         138.9095  144.3038  154.2312 H       1  UNL1        0.1438
     13 N         139.2214  142.9702  160.1434 N.ar    1  UNL1       -0.1967
     14 N         138.7459  141.5516  160.2507 N.ar    1  UNL1       -0.1666
     15 C         138.4177  141.2804  161.6890 C.ar    1  UNL1        0.0849
     16 C         138.6902  142.5313  162.4706 C.ar    1  UNL1        0.0331
     17 C         138.5503  142.8543  163.9287 C.ar    1  UNL1       -0.0015
     18 C         138.9070  144.2216  164.4315 C.ar    1  UNL1       -0.0217
     19 C         138.7671  144.5447  165.8897 C.3     1  UNL1        0.0310
     20 C         139.4037  145.2661  163.4763 C.ar    1  UNL1       -0.0027
     21 C         139.5437  144.9431  162.0182 C.ar    1  UNL1        0.0190
     22 C         139.1869  143.5757  161.5154 C.ar    1  UNL1        0.0870
     23 C         137.9066  139.9855  162.2476 C.3     1  UNL1        0.0762
     24 C         138.8257  139.0881  163.0224 C.ar    1  UNL1        0.0113
     25 C         139.8118  138.2197  162.2989 C.ar    1  UNL1       -0.0017
     26 C         140.7308  137.3224  163.0735 C.ar    1  UNL1       -0.0002
     27 C         140.6638  137.2935  164.5717 C.ar    1  UNL1        0.0023
     28 C         139.6777  138.1619  165.2952 C.ar    1  UNL1        0.0293
     29 C         138.7587  139.0593  164.5206 C.ar    1  UNL1        0.1365
     30 F         137.7726  139.9277  165.2441 F       1  UNL1       -0.2045
     31 C         140.2969  147.0184  154.6932 C.2     1  UNL1        0.4090
     32 O         139.2039  147.6079  155.5346 O.2     1  UNL1       -0.2258
     33 N         140.9562  145.7372  155.1100 N.am    1  UNL1       -0.2181
     34 C         142.0492  145.1478  154.2687 C.3     1  UNL1        0.1237
     35 C         140.1423  149.0408  153.0695 C.3     1  UNL1        0.2574
     36 O         140.7306  147.7102  153.4348 O.3     1  UNL1       -0.4302
@<TRIPOS>BOND
     1    35    36    1
     2    36    31    1
     3    31    32    2
     4    31    33   am
     5    33    34    1
     6    33     1    1
     7     1     2   ar
     8     2     3    1
     9     2     4   ar
    10     4     5   ar
    11     5    13    1
    12    13    14   ar
    13    14    15   ar
    14    15    23    1
    15    23    24    1
    16    24    25   ar
    17    25    26   ar
    18    26    27   ar
    19    27    28   ar
    20    28    29   ar
    21    29    30    1
    22    15    16   ar
    23    16    17   ar
    24    17    18   ar
    25    18    19    1
    26    18    20   ar
    27    20    21   ar
    28    21    22   ar
    29     5     6   ar
    30     6     7   ar
    31     7     8    1
    32     7     1   ar
    33    22    13   ar
    34    29    24   ar
    35    22    16   ar
    36     3     9    1
    37     3    10    1
    38     8    11    1
    39     8    12    1
@<TRIPOS>MOLECULE
*****
 36 39 0 0 0
SMALL
GASTEIGER

@<TRIPOS>ATOM
      1 C         144.4999  141.7797  156.6449 C.ar    1  UNL1        0.1194
      2 C         144.7208  140.3291  156.9561 C.ar    1  UNL1        0.1452
      3 N         145.6201  139.5035  156.0845 N.pl3   1  UNL1       -0.3415
      4 N         144.0422  139.7040  158.1389 N.ar    1  UNL1       -0.1940
      5 C         143.1429  140.5294  159.0104 C.ar    1  UNL1        0.2554
      6 N         142.9220  141.9801  158.6992 N.ar    1  UNL1       -0.1940
      7 C         143.6006  142.6052  157.5165 C.ar    1  UNL1        0.1452
      8 N         143.3796  144.0559  157.2054 N.pl3   1  UNL1       -0.3415
      9 H         146.0654  139.9138  155.3083 H       1  UNL1        0.1438
     10 H         145.7651  138.5514  156.2888 H       1  UNL1        0.1438
     11 H         142.7894  144.5976  157.7774 H       1  UNL1        0.1438
     12 H         143.8249  144.4662  156.4291 H       1  UNL1        0.1438
     13 N         142.4644  139.9043  160.1932 N.ar    1  UNL1       -0.1967
     14 N         141.0614  139.3748  160.2266 N.ar    1  UNL1       -0.1666
     15 C         140.7997  138.8422  161.6042 C.ar    1  UNL1        0.0849
     16 C         142.0410  139.0426  162.4222 C.ar    1  UNL1        0.0331
     17 C         142.3674  138.7121  163.8485 C.ar    1  UNL1       -0.0015
     18 C         143.7226  139.0381  164.4026 C.ar    1  UNL1       -0.0217
     19 C         144.0490  138.7076  165.8290 C.3     1  UNL1        0.0310
     20 C         144.7514  139.6945  163.5305 C.ar    1  UNL1       -0.0027
     21 C         144.4251  140.0250  162.1043 C.ar    1  UNL1        0.0190
     22 C         143.0699  139.6990  161.5501 C.ar    1  UNL1        0.0870
     23 C         139.5212  138.2187  162.0804 C.3     1  UNL1        0.0762
     24 C         139.0212  138.4983  163.4667 C.ar    1  UNL1        0.0113
     25 C         138.9393  137.3884  164.4725 C.ar    1  UNL1       -0.0017
     26 C         138.4394  137.6679  165.8588 C.ar    1  UNL1       -0.0002
     27 C         138.0213  139.0573  166.2394 C.ar    1  UNL1        0.0023
     28 C         138.1031  140.1671  165.2336 C.ar    1  UNL1        0.0293
     29 C         138.6031  139.8876  163.8473 C.ar    1  UNL1        0.1365
     30 F         138.6850  140.9975  162.8415 F       1  UNL1       -0.2045
     31 C         146.5981  142.8758  155.5745 C.2     1  UNL1        0.4090
     32 O         147.3393  142.7217  156.8694 O.2     1  UNL1       -0.2258
     33 N         145.1784  142.4048  155.4622 N.am    1  UNL1       -0.2181
     34 C         144.4372  142.5589  154.1672 C.3     1  UNL1        0.1237
     35 C         148.4728  142.8375  153.7761 C.3     1  UNL1        0.2574
     36 O         147.2767  143.5009  154.3917 O.3     1  UNL1       -0.4302
@<TRIPOS>BOND
     1    35    36    1
     2    36    31    1
     3    31    32    2
     4    31    33   am
     5    33    34    1
     6    33     1    1
     7     1     2   ar
     8     2     3    1
     9     2     4   ar
    10     4     5   ar
    11     5    13    1
    12    13    14   ar
    13    14    15   ar
    14    15    23    1
    15    23    24    1
    16    24    25   ar
    17    25    26   ar
    18    26    27   ar
    19    27    28   ar
    20    28    29   ar
    21    29    30    1
    22    15    16   ar
    23    16    17   ar
    24    17    18   ar
    25    18    19    1
    26    18    20   ar
    27    20    21   ar
    28    21    22   ar
    29     5     6   ar
    30     6     7   ar
    31     7     8    1
    32     7     1   ar
    33    22    13   ar
    34    29    24   ar
    35    22    16   ar
    36     3     9    1
    37     3    10    1
    38     8    11    1
    39     8    12    1
@<TRIPOS>MOLECULE
*****
 36 39 0 0 0
SMALL
GASTEIGER

@<TRIPOS>ATOM
      1 C         138.9889  139.6735  156.7599 C.ar    1  UNL1        0.1194
      2 C         140.1452  139.2464  157.6146 C.ar    1  UNL1        0.1452
      3 N         141.3979  138.7248  156.9753 N.pl3   1  UNL1       -0.3415
      4 N         140.0489  139.3411  159.1085 N.ar    1  UNL1       -0.1940
      5 C         138.7963  139.8627  159.7478 C.ar    1  UNL1        0.2554
      6 N         137.6399  140.2898  158.8931 N.ar    1  UNL1       -0.1940
      7 C         137.7362  140.1951  157.3992 C.ar    1  UNL1        0.1452
      8 N         136.5798  140.6221  156.5446 N.pl3   1  UNL1       -0.3415
      9 H         141.4611  138.6627  155.9948 H       1  UNL1        0.1438
     10 H         142.1569  138.4445  157.5363 H       1  UNL1        0.1438
     11 H         135.7576  140.9645  156.9642 H       1  UNL1        0.1438
     12 H         136.6429  140.5600  155.5641 H       1  UNL1        0.1438
     13 N         138.7000  139.9574  161.2417 N.ar    1  UNL1       -0.1967
     14 N         138.8559  138.8216  162.2090 N.ar    1  UNL1       -0.1666
     15 C         138.6831  139.3668  163.5957 C.ar    1  UNL1        0.0849
     16 C         138.4204  140.8395  163.4854 C.ar    1  UNL1        0.0331
     17 C         138.1731  141.8953  164.5218 C.ar    1  UNL1       -0.0015
     18 C         137.9362  143.3160  164.1033 C.ar    1  UNL1       -0.0217
     19 C         137.6888  144.3719  165.1397 C.3     1  UNL1        0.0310
     20 C         137.9466  143.6811  162.6485 C.ar    1  UNL1       -0.0027
     21 C         138.1939  142.6253  161.6121 C.ar    1  UNL1        0.0190
     22 C         138.4309  141.2045  162.0306 C.ar    1  UNL1        0.0870
     23 C         138.7596  138.5778  164.8691 C.3     1  UNL1        0.0762
     24 C         139.4401  139.1601  166.0725 C.ar    1  UNL1        0.0113
     25 C         140.8771  139.5822  165.9906 C.ar    1  UNL1       -0.0017
     26 C         141.5576  140.1644  167.1938 C.ar    1  UNL1       -0.0002
     27 C         140.8010  140.3246  168.4791 C.ar    1  UNL1        0.0023
     28 C         139.3640  139.9025  168.5610 C.ar    1  UNL1        0.0293
     29 C         138.6835  139.3202  167.3578 C.ar    1  UNL1        0.1365
     30 F         137.2464  138.8982  167.4397 F       1  UNL1       -0.2045
     31 C         138.6150  138.3410  154.5612 C.2     1  UNL1        0.4090
     32 O         138.0486  137.1980  155.3501 O.2     1  UNL1       -0.2258
     33 N         139.0852  139.5788  155.2660 N.am    1  UNL1       -0.2181
     34 C         139.6516  140.7219  154.4770 C.3     1  UNL1        0.1237
     35 C         139.7062  137.3173  152.4371 C.3     1  UNL1        0.2574
     36 O         138.7113  138.2463  153.0672 O.3     1  UNL1       -0.4302
@<TRIPOS>BOND
     1    35    36    1
     2    36    31    1
     3    31    32    2
     4    31    33   am
     5    33    34    1
     6    33     1    1
     7     1     2   ar
     8     2     3    1
     9     2     4   ar
    10     4     5   ar
    11     5    13    1
    12    13    14   ar
    13    14    15   ar
    14    15    23    1
    15    23    24    1
    16    24    25   ar
    17    25    26   ar
    18    26    27   ar
    19    27    28   ar
    20    28    29   ar
    21    29    30    1
    22    15    16   ar
    23    16    17   ar
    24    17    18   ar
    25    18    19    1
    26    18    20   ar
    27    20    21   ar
    28    21    22   ar
    29     5     6   ar
    30     6     7   ar
    31     7     8    1
    32     7     1   ar
    33    22    13   ar
    34    29    24   ar
    35    22    16   ar
    36     3     9    1
    37     3    10    1
    38     8    11    1
    39     8    12    1
@<TRIPOS>MOLECULE
*****
 36 39 0 0 0
SMALL
GASTEIGER

@<TRIPOS>ATOM
      1 C         143.4859  142.0658  158.3860 C.ar    1  UNL1        0.1194
      2 C         143.0323  143.3713  158.9691 C.ar    1  UNL1        0.1452
      3 N         142.9431  144.5903  158.0996 N.pl3   1  UNL1       -0.3415
      4 N         142.6680  143.4577  160.4216 N.ar    1  UNL1       -0.1940
      5 C         142.7571  142.2388  161.2911 C.ar    1  UNL1        0.2554
      6 N         143.2107  140.9332  160.7080 N.ar    1  UNL1       -0.1940
      7 C         143.5750  140.8467  159.2555 C.ar    1  UNL1        0.1452
      8 N         144.0286  139.5412  158.6725 N.pl3   1  UNL1       -0.3415
      9 H         143.1823  144.5336  157.1463 H       1  UNL1        0.1438
     10 H         142.6455  145.4472  158.4823 H       1  UNL1        0.1438
     11 H         144.0871  138.7412  159.2432 H       1  UNL1        0.1438
     12 H         144.2677  139.4844  157.7192 H       1  UNL1        0.1438
     13 N         142.3928  142.3252  162.7436 N.ar    1  UNL1       -0.1967
     14 N         143.1116  141.6512  163.8745 N.ar    1  UNL1       -0.1666
     15 C         142.4086  142.0103  165.1500 C.ar    1  UNL1        0.0849
     16 C         141.2554  142.9062  164.8074 C.ar    1  UNL1        0.0331
     17 C         140.2130  143.5700  165.6575 C.ar    1  UNL1       -0.0015
     18 C         139.1607  144.4283  165.0204 C.ar    1  UNL1       -0.0217
     19 C         138.1182  145.0921  165.8705 C.3     1  UNL1        0.0310
     20 C         139.1509  144.6229  163.5331 C.ar    1  UNL1       -0.0027
     21 C         140.1933  143.9592  162.6830 C.ar    1  UNL1        0.0190
     22 C         141.2456  143.1009  163.3201 C.ar    1  UNL1        0.0870
     23 C         142.7917  141.5537  166.5265 C.3     1  UNL1        0.0762
     24 C         141.7427  141.4155  167.5899 C.ar    1  UNL1        0.0113
     25 C         141.6832  142.4029  168.7175 C.ar    1  UNL1       -0.0017
     26 C         140.6343  142.2647  169.7808 C.ar    1  UNL1       -0.0002
     27 C         139.6449  141.1391  169.7165 C.ar    1  UNL1        0.0023
     28 C         139.7044  140.1518  168.5889 C.ar    1  UNL1        0.0293
     29 C         140.7533  140.2899  167.5256 C.ar    1  UNL1        0.1365
     30 F         140.8128  139.3025  166.3979 F       1  UNL1       -0.2045
     31 C         145.2615  142.2406  156.4975 C.2     1  UNL1        0.4090
     32 O         146.3083  142.5883  157.5140 O.2     1  UNL1       -0.2258
     33 N         143.8502  141.9793  156.9335 N.am    1  UNL1       -0.2181
     34 C         142.8034  141.6317  155.9171 C.3     1  UNL1        0.1237
     35 C         146.1734  140.8754  154.4839 C.3     1  UNL1        0.2574
     36 O         145.6259  142.1542  155.0450 O.3     1  UNL1       -0.4302
@<TRIPOS>BOND
     1    35    36    1
     2    36    31    1
     3    31    32    2
     4    31    33   am
     5    33    34    1
     6    33     1    1
     7     1     2   ar
     8     2     3    1
     9     2     4   ar
    10     4     5   ar
    11     5    13    1
    12    13    14   ar
    13    14    15   ar
    14    15    23    1
    15    23    24    1
    16    24    25   ar
    17    25    26   ar
    18    26    27   ar
    19    27    28   ar
    20    28    29   ar
    21    29    30    1
    22    15    16   ar
    23    16    17   ar
    24    17    18   ar
    25    18    19    1
    26    18    20   ar
    27    20    21   ar
    28    21    22   ar
    29     5     6   ar
    30     6     7   ar
    31     7     8    1
    32     7     1   ar
    33    22    13   ar
    34    29    24   ar
    35    22    16   ar
    36     3     9    1
    37     3    10    1
    38     8    11    1
    39     8    12    1
