@<TRIPOS>MOLECULE
*****
 29 31 0 0 0
SMALL
GASTEIGER

@<TRIPOS>ATOM
      1 C         140.9722  142.1660  165.9962 C.3     1  UNL1        0.1232
      2 S         140.0997  143.0913  165.2008 S.3     1  UNL1       -0.1046
      3 C         140.4379  143.8562  163.9556 C.ar    1  UNL1        0.0393
      4 C         139.2714  144.6694  163.4781 C.ar    1  UNL1        0.0074
      5 C         139.3994  145.5111  162.2432 C.ar    1  UNL1        0.0006
      6 C         140.6938  145.5397  161.4858 C.ar    1  UNL1        0.0013
      7 C         141.8603  144.7265  161.9633 C.ar    1  UNL1        0.0154
      8 C         141.7323  143.8847  163.1982 C.ar    1  UNL1        0.0596
      9 N         143.0081  143.1554  163.4989 N.am    1  UNL1       -0.2538
     10 C         143.3047  142.2175  164.6313 C.2     1  UNL1        0.2709
     11 O         144.6905  141.6441  164.6556 O.2     1  UNL1       -0.2706
     12 C         142.3986  141.7772  165.7427 C.3     1  UNL1        0.2585
     13 C         139.0576  140.3118  169.6219 C.ar    1  UNL1        0.1387
     14 C         138.8981  139.6669  168.2771 C.ar    1  UNL1        0.0366
     15 C         139.5363  140.2849  167.0684 C.ar    1  UNL1       -0.0002
     16 C         140.3340  141.5480  167.2047 C.ar    1  UNL1       -0.0080
     17 C         140.4935  142.1929  168.5496 C.ar    1  UNL1       -0.0002
     18 C         139.8554  141.5748  169.7582 C.ar    1  UNL1        0.0366
     19 C         137.0069  139.1941  170.7600 C.3     1  UNL1        0.2525
     20 O         138.4195  139.6937  170.8305 O.3     1  UNL1       -0.4714
     21 C         144.1367  143.3959  162.5405 C.3     1  UNL1        0.1156
     22 C         144.3039  142.5104  161.3413 C.3     1  UNL1        0.0943
     23 N         143.5432  141.2209  161.2493 N.3     1  UNL1       -0.2688
     24 C         142.1629  141.2047  160.6621 C.3     1  UNL1        0.0897
     25 C         144.1625  139.9477  161.7443 C.3     1  UNL1        0.0897
     26 O         142.9982  140.8217  166.7314 O.3     1  UNL1       -0.4415
     27 C         143.0001  139.3493  166.4451 C.2     1  UNL1        0.3179
     28 C         142.3803  138.8301  165.1816 C.3     1  UNL1        0.1212
     29 O         143.6217  138.3960  167.4223 O.2     1  UNL1       -0.2501
@<TRIPOS>BOND
     1    19    20    1
     2    20    13    1
     3    13    14   ar
     4    14    15   ar
     5    15    16   ar
     6     1    16    1
     7     1     2    1
     8     2     3    1
     9     3     4   ar
    10     4     5   ar
    11     5     6   ar
    12     6     7   ar
    13     7     8   ar
    14     8     9    1
    15     9    21    1
    16    21    22    1
    17    22    23    1
    18    23    24    1
    19    23    25    1
    20     9    10   am
    21    10    11    2
    22    10    12    1
    23    12    26    1
    24    26    27    1
    25    27    28    1
    26    27    29    2
    27    16    17   ar
    28    17    18   ar
    29    18    13   ar
    30    12     1    1
    31     8     3   ar
@<TRIPOS>MOLECULE
*****
 29 31 0 0 0
SMALL
GASTEIGER

@<TRIPOS>ATOM
      1 C         141.5807  139.6995  163.4560 C.3     1  UNL1        0.1232
      2 S         140.3865  138.9838  164.0143 S.3     1  UNL1       -0.1046
      3 C         139.7338  139.1573  165.3537 C.ar    1  UNL1        0.0393
      4 C         138.5580  138.2398  165.5134 C.ar    1  UNL1        0.0074
      5 C         137.7627  138.2543  166.7850 C.ar    1  UNL1        0.0006
      6 C         138.1432  139.1863  167.8970 C.ar    1  UNL1        0.0013
      7 C         139.3190  140.1038  167.7374 C.ar    1  UNL1        0.0154
      8 C         140.1143  140.0893  166.4657 C.ar    1  UNL1        0.0596
      9 N         141.2414  141.0781  166.5129 N.am    1  UNL1       -0.2538
     10 C         142.2663  141.3790  165.4598 C.2     1  UNL1        0.2709
     11 O         143.2733  142.4328  165.8139 O.2     1  UNL1       -0.2706
     12 C         142.4172  140.7655  164.0994 C.3     1  UNL1        0.2585
     13 C         142.8170  138.4886  159.3021 C.ar    1  UNL1        0.1387
     14 C         141.9414  139.6897  159.5038 C.ar    1  UNL1        0.0366
     15 C         141.5293  140.0934  160.8885 C.ar    1  UNL1       -0.0002
     16 C         141.9928  139.2959  162.0714 C.ar    1  UNL1       -0.0080
     17 C         142.8683  138.0948  161.8696 C.ar    1  UNL1       -0.0002
     18 C         143.2805  137.6911  160.4850 C.ar    1  UNL1        0.0366
     19 C         142.4892  136.9932  157.2030 C.3     1  UNL1        0.2525
     20 O         143.2291  138.0850  157.9175 O.3     1  UNL1       -0.4714
     21 C         141.3590  141.8707  167.7809 C.3     1  UNL1        0.1156
     22 C         142.4327  141.5404  168.7751 C.3     1  UNL1        0.0943
     23 N         142.1319  140.6309  169.9293 N.3     1  UNL1       -0.2688
     24 C         142.3989  139.1593  169.8138 C.3     1  UNL1        0.0897
     25 C         141.5643  141.1928  171.1989 C.3     1  UNL1        0.0897
     26 O         143.5553  141.2869  163.2730 O.3     1  UNL1       -0.4415
     27 C         144.9563  140.8299  163.5527 C.2     1  UNL1        0.3179
     28 C         145.1929  139.5558  164.3081 C.3     1  UNL1        0.1212
     29 O         146.1209  141.6471  163.0772 O.2     1  UNL1       -0.2501
@<TRIPOS>BOND
     1    19    20    1
     2    20    13    1
     3    13    14   ar
     4    14    15   ar
     5    15    16   ar
     6     1    16    1
     7     1     2    1
     8     2     3    1
     9     3     4   ar
    10     4     5   ar
    11     5     6   ar
    12     6     7   ar
    13     7     8   ar
    14     8     9    1
    15     9    21    1
    16    21    22    1
    17    22    23    1
    18    23    24    1
    19    23    25    1
    20     9    10   am
    21    10    11    2
    22    10    12    1
    23    12    26    1
    24    26    27    1
    25    27    28    1
    26    27    29    2
    27    16    17   ar
    28    17    18   ar
    29    18    13   ar
    30    12     1    1
    31     8     3   ar
@<TRIPOS>MOLECULE
*****
 29 31 0 0 0
SMALL
GASTEIGER

@<TRIPOS>ATOM
      1 C         139.5941  140.6500  163.7493 C.3     1  UNL1        0.1232
      2 S         140.4266  139.6779  162.9670 S.3     1  UNL1       -0.1046
      3 C         140.6991  139.6548  161.4922 C.ar    1  UNL1        0.0393
      4 C         141.5876  138.5060  161.1169 C.ar    1  UNL1        0.0074
      5 C         141.9833  138.3007  159.6847 C.ar    1  UNL1        0.0006
      6 C         141.4906  139.2442  158.6278 C.ar    1  UNL1        0.0013
      7 C         140.6021  140.3929  159.0030 C.ar    1  UNL1        0.0154
      8 C         140.2064  140.5983  160.4352 C.ar    1  UNL1        0.0596
      9 N         139.3194  141.7977  160.5922 N.am    1  UNL1       -0.2538
     10 C         138.7061  142.3501  161.8447 C.2     1  UNL1        0.2709
     11 O         137.8586  143.5751  161.6690 O.2     1  UNL1       -0.2706
     12 C         138.8284  141.8392  163.2497 C.3     1  UNL1        0.2585
     13 C         139.3629  139.8995  168.1802 C.ar    1  UNL1        0.1387
     14 C         140.4656  140.7479  167.6198 C.ar    1  UNL1        0.0366
     15 C         140.5427  140.9981  166.1428 C.ar    1  UNL1       -0.0002
     16 C         139.5170  140.3998  165.2262 C.ar    1  UNL1       -0.0080
     17 C         138.4143  139.5514  165.7867 C.ar    1  UNL1       -0.0002
     18 C         138.3371  139.3012  167.2636 C.ar    1  UNL1        0.0366
     19 C         140.2973  140.2674  170.5764 C.3     1  UNL1        0.2525
     20 O         139.2858  139.6493  169.6571 O.3     1  UNL1       -0.4714
     21 C         139.0040  142.5436  159.3295 C.3     1  UNL1        0.1156
     22 C         139.7509  143.8005  158.9943 C.3     1  UNL1        0.0943
     23 N         140.9777  144.1740  159.7724 N.3     1  UNL1       -0.2688
     24 C         142.3029  143.5653  159.4209 C.3     1  UNL1        0.0897
     25 C         140.8795  145.1561  160.9018 C.3     1  UNL1        0.0897
     26 O         138.0869  142.6210  164.2933 O.3     1  UNL1       -0.4415
     27 C         138.6486  143.9162  164.8002 C.2     1  UNL1        0.3179
     28 C         140.0988  144.2376  164.5912 C.3     1  UNL1        0.1212
     29 O         137.7602  144.8900  165.5160 O.2     1  UNL1       -0.2501
@<TRIPOS>BOND
     1    19    20    1
     2    20    13    1
     3    13    14   ar
     4    14    15   ar
     5    15    16   ar
     6     1    16    1
     7     1     2    1
     8     2     3    1
     9     3     4   ar
    10     4     5   ar
    11     5     6   ar
    12     6     7   ar
    13     7     8   ar
    14     8     9    1
    15     9    21    1
    16    21    22    1
    17    22    23    1
    18    23    24    1
    19    23    25    1
    20     9    10   am
    21    10    11    2
    22    10    12    1
    23    12    26    1
    24    26    27    1
    25    27    28    1
    26    27    29    2
    27    16    17   ar
    28    17    18   ar
    29    18    13   ar
    30    12     1    1
    31     8     3   ar
@<TRIPOS>MOLECULE
*****
 29 31 0 0 0
SMALL
GASTEIGER

@<TRIPOS>ATOM
      1 C         141.1371  142.4501  163.5129 C.3     1  UNL1        0.1232
      2 S         139.9501  141.6186  163.8997 S.3     1  UNL1       -0.1046
      3 C         139.6892  140.9055  165.1933 C.ar    1  UNL1        0.0393
      4 C         138.3743  140.1843  165.1660 C.ar    1  UNL1        0.0074
      5 C         137.9211  139.4054  166.3651 C.ar    1  UNL1        0.0006
      6 C         138.7829  139.3477  167.5915 C.ar    1  UNL1        0.0013
      7 C         140.0978  140.0689  167.6188 C.ar    1  UNL1        0.0154
      8 C         140.5510  140.8478  166.4197 C.ar    1  UNL1        0.0596
      9 N         141.8864  141.4890  166.6553 N.am    1  UNL1       -0.2538
     10 C         142.6900  142.3462  165.7228 C.2     1  UNL1        0.2709
     11 O         144.0002  142.8411  166.2598 O.2     1  UNL1       -0.2706
     12 C         142.3564  142.7739  164.3243 C.3     1  UNL1        0.2585
     13 C         141.0253  144.2054  159.3709 C.ar    1  UNL1        0.1387
     14 C         140.8032  145.0859  160.5648 C.ar    1  UNL1        0.0366
     15 C         140.8404  144.5008  161.9455 C.ar    1  UNL1       -0.0002
     16 C         141.0998  143.0352  162.1322 C.ar    1  UNL1       -0.0080
     17 C         141.3219  142.1548  160.9383 C.ar    1  UNL1       -0.0002
     18 C         141.2847  142.7398  159.5576 C.ar    1  UNL1        0.0366
     19 C         142.0547  145.7505  157.5533 C.3     1  UNL1        0.2525
     20 O         140.9880  144.7905  157.9902 O.3     1  UNL1       -0.4714
     21 C         142.4994  141.2400  168.0015 C.3     1  UNL1        0.1156
     22 C         142.5552  142.3436  169.0160 C.3     1  UNL1        0.0943
     23 N         141.4000  142.5659  169.9466 N.3     1  UNL1       -0.2688
     24 C         141.1902  141.6478  171.1142 C.3     1  UNL1        0.0897
     25 C         140.4546  143.7060  169.7097 C.3     1  UNL1        0.0897
     26 O         143.3773  143.6400  163.6477 O.3     1  UNL1       -0.4415
     27 C         144.5182  143.0125  162.9031 C.2     1  UNL1        0.3179
     28 C         144.6240  143.1767  161.4159 C.3     1  UNL1        0.1212
     29 O         145.5534  142.2207  163.6458 O.2     1  UNL1       -0.2501
@<TRIPOS>BOND
     1    19    20    1
     2    20    13    1
     3    13    14   ar
     4    14    15   ar
     5    15    16   ar
     6     1    16    1
     7     1     2    1
     8     2     3    1
     9     3     4   ar
    10     4     5   ar
    11     5     6   ar
    12     6     7   ar
    13     7     8   ar
    14     8     9    1
    15     9    21    1
    16    21    22    1
    17    22    23    1
    18    23    24    1
    19    23    25    1
    20     9    10   am
    21    10    11    2
    22    10    12    1
    23    12    26    1
    24    26    27    1
    25    27    28    1
    26    27    29    2
    27    16    17   ar
    28    17    18   ar
    29    18    13   ar
    30    12     1    1
    31     8     3   ar
@<TRIPOS>MOLECULE
*****
 29 31 0 0 0
SMALL
GASTEIGER

@<TRIPOS>ATOM
      1 C         142.3702  142.3262  164.7964 C.3     1  UNL1        0.1232
      2 S         141.4413  143.4201  164.3598 S.3     1  UNL1       -0.1046
      3 C         141.2800  144.0212  162.9950 C.ar    1  UNL1        0.0393
      4 C         140.2348  145.0969  162.9899 C.ar    1  UNL1        0.0074
      5 C         139.9175  145.8283  161.7194 C.ar    1  UNL1        0.0006
      6 C         140.6454  145.4839  160.4539 C.ar    1  UNL1        0.0013
      7 C         141.6907  144.4082  160.4590 C.ar    1  UNL1        0.0154
      8 C         142.0080  143.6768  161.7295 C.ar    1  UNL1        0.0596
      9 N         143.0770  142.6463  161.5164 N.am    1  UNL1       -0.2538
     10 C         143.6820  141.7057  162.5159 C.2     1  UNL1        0.2709
     11 O         144.7416  140.7859  161.9858 O.2     1  UNL1       -0.2706
     12 C         143.3675  141.5633  163.9757 C.3     1  UNL1        0.2585
     13 C         142.1343  141.1824  169.1421 C.ar    1  UNL1        0.1387
     14 C         141.1362  140.6326  168.1666 C.ar    1  UNL1        0.0366
     15 C         141.2148  141.0139  166.7180 C.ar    1  UNL1       -0.0002
     16 C         142.2916  141.9450  166.2449 C.ar    1  UNL1       -0.0080
     17 C         143.2897  142.4947  167.2204 C.ar    1  UNL1       -0.0002
     18 C         143.2111  142.1135  168.6690 C.ar    1  UNL1        0.0366
     19 C         141.0169  141.4247  171.4751 C.3     1  UNL1        0.2525
     20 O         142.0557  140.8011  170.5907 O.3     1  UNL1       -0.4714
     21 C         143.6116  142.5427  160.1187 C.3     1  UNL1        0.1156
     22 C         143.1320  141.4487  159.2113 C.3     1  UNL1        0.0943
     23 N         141.8946  140.6752  159.5582 N.3     1  UNL1       -0.2688
     24 C         142.0087  139.3476  160.2471 C.3     1  UNL1        0.0897
     25 C         140.5433  141.2290  159.2162 C.3     1  UNL1        0.0897
     26 O         144.1542  140.5199  164.7122 O.3     1  UNL1       -0.4415
     27 C         143.6321  139.1171  164.8100 C.2     1  UNL1        0.3179
     28 C         143.7155  138.3748  166.1108 C.3     1  UNL1        0.1212
     29 O         143.0267  138.4565  163.6070 O.2     1  UNL1       -0.2501
@<TRIPOS>BOND
     1    19    20    1
     2    20    13    1
     3    13    14   ar
     4    14    15   ar
     5    15    16   ar
     6     1    16    1
     7     1     2    1
     8     2     3    1
     9     3     4   ar
    10     4     5   ar
    11     5     6   ar
    12     6     7   ar
    13     7     8   ar
    14     8     9    1
    15     9    21    1
    16    21    22    1
    17    22    23    1
    18    23    24    1
    19    23    25    1
    20     9    10   am
    21    10    11    2
    22    10    12    1
    23    12    26    1
    24    26    27    1
    25    27    28    1
    26    27    29    2
    27    16    17   ar
    28    17    18   ar
    29    18    13   ar
    30    12     1    1
    31     8     3   ar
@<TRIPOS>MOLECULE
*****
 29 31 0 0 0
SMALL
GASTEIGER

@<TRIPOS>ATOM
      1 C         140.7919  141.6175  164.4428 C.3     1  UNL1        0.1232
      2 S         140.3260  143.0129  164.1500 S.3     1  UNL1       -0.1046
      3 C         140.3765  143.7629  162.8519 C.ar    1  UNL1        0.0393
      4 C         139.8026  145.1416  162.9928 C.ar    1  UNL1        0.0074
      5 C         139.7578  146.0600  161.8078 C.ar    1  UNL1        0.0006
      6 C         140.2869  145.5997  160.4818 C.ar    1  UNL1        0.0013
      7 C         140.8608  144.2211  160.3409 C.ar    1  UNL1        0.0154
      8 C         140.9056  143.3027  161.5260 C.ar    1  UNL1        0.0596
      9 N         141.5148  141.9788  161.1706 N.am    1  UNL1       -0.2538
     10 C         141.7454  140.7882  162.0534 C.2     1  UNL1        0.2709
     11 O         142.3817  139.6015  161.3926 O.2     1  UNL1       -0.2706
     12 C         141.4236  140.6274  163.5097 C.3     1  UNL1        0.2585
     13 C         140.2191  140.2163  168.6805 C.ar    1  UNL1        0.1387
     14 C         139.2718  139.7674  167.6076 C.ar    1  UNL1        0.0366
     15 C         139.4627  140.2344  166.1950 C.ar    1  UNL1       -0.0002
     16 C         140.6010  141.1505  165.8553 C.ar    1  UNL1       -0.0080
     17 C         141.5483  141.5994  166.9282 C.ar    1  UNL1       -0.0002
     18 C         141.3574  141.1324  168.3408 C.ar    1  UNL1        0.0366
     19 C         140.6958  140.4788  171.2210 C.3     1  UNL1        0.2525
     20 O         140.0282  139.7493  170.0931 O.3     1  UNL1       -0.4714
     21 C         141.9511  141.8252  159.7437 C.3     1  UNL1        0.1156
     22 C         141.1155  141.0293  158.7853 C.3     1  UNL1        0.0943
     23 N         139.6729  140.7583  159.0943 N.3     1  UNL1       -0.2688
     24 C         138.6426  141.8224  158.8575 C.3     1  UNL1        0.0897
     25 C         139.2607  139.4234  159.6400 C.3     1  UNL1        0.0897
     26 O         141.7809  139.3012  164.1125 O.3     1  UNL1       -0.4415
     27 C         143.1352  139.0955  164.7236 C.2     1  UNL1        0.3179
     28 C         143.2647  138.3860  166.0388 C.3     1  UNL1        0.1212
     29 O         144.3601  139.5993  164.0194 O.2     1  UNL1       -0.2501
@<TRIPOS>BOND
     1    19    20    1
     2    20    13    1
     3    13    14   ar
     4    14    15   ar
     5    15    16   ar
     6     1    16    1
     7     1     2    1
     8     2     3    1
     9     3     4   ar
    10     4     5   ar
    11     5     6   ar
    12     6     7   ar
    13     7     8   ar
    14     8     9    1
    15     9    21    1
    16    21    22    1
    17    22    23    1
    18    23    24    1
    19    23    25    1
    20     9    10   am
    21    10    11    2
    22    10    12    1
    23    12    26    1
    24    26    27    1
    25    27    28    1
    26    27    29    2
    27    16    17   ar
    28    17    18   ar
    29    18    13   ar
    30    12     1    1
    31     8     3   ar
@<TRIPOS>MOLECULE
*****
 29 31 0 0 0
SMALL
GASTEIGER

@<TRIPOS>ATOM
      1 C         142.2125  140.5700  163.5499 C.3     1  UNL1        0.1232
      2 S         140.9830  139.8121  163.9549 S.3     1  UNL1       -0.1046
      3 C         140.2745  139.8168  165.2770 C.ar    1  UNL1        0.0393
      4 C         139.0777  138.9126  165.2606 C.ar    1  UNL1        0.0074
      5 C         138.2270  138.7722  166.4880 C.ar    1  UNL1        0.0006
      6 C         138.5730  139.5360  167.7318 C.ar    1  UNL1        0.0013
      7 C         139.7697  140.4402  167.7481 C.ar    1  UNL1        0.0154
      8 C         140.6204  140.5806  166.5208 C.ar    1  UNL1        0.0596
      9 N         141.7604  141.5283  166.7495 N.am    1  UNL1       -0.2538
     10 C         142.8359  141.9464  165.7912 C.2     1  UNL1        0.2709
     11 O         143.8434  142.9195  166.3276 O.2     1  UNL1       -0.2706
     12 C         143.0371  141.5199  164.3672 C.3     1  UNL1        0.2585
     13 C         143.6121  139.9066  159.3249 C.ar    1  UNL1        0.1387
     14 C         142.5491  140.9254  159.6116 C.ar    1  UNL1        0.0366
     15 C         142.0825  141.1465  161.0200 C.ar    1  UNL1       -0.0002
     16 C         142.6790  140.3489  162.1416 C.ar    1  UNL1       -0.0080
     17 C         143.7420  139.3302  161.8549 C.ar    1  UNL1       -0.0002
     18 C         144.2086  139.1090  160.4466 C.ar    1  UNL1        0.0366
     19 C         144.5000  140.8528  157.0740 C.3     1  UNL1        0.2525
     20 O         144.0786  139.6855  157.9166 O.3     1  UNL1       -0.4714
     21 C         141.8346  142.1388  168.1177 C.3     1  UNL1        0.1156
     22 C         142.7790  141.5776  169.1392 C.3     1  UNL1        0.0943
     23 N         142.2874  140.5828  170.1485 N.3     1  UNL1       -0.2688
     24 C         141.5676  141.0543  171.3771 C.3     1  UNL1        0.0897
     25 C         142.5157  139.1167  169.9292 C.3     1  UNL1        0.0897
     26 O         144.2192  142.1230  163.6680 O.3     1  UNL1       -0.4415
     27 C         144.0694  143.4141  162.9195 C.2     1  UNL1        0.3179
     28 C         143.4157  144.5921  163.5792 C.3     1  UNL1        0.1212
     29 O         144.5733  143.5275  161.5111 O.2     1  UNL1       -0.2501
@<TRIPOS>BOND
     1    19    20    1
     2    20    13    1
     3    13    14   ar
     4    14    15   ar
     5    15    16   ar
     6     1    16    1
     7     1     2    1
     8     2     3    1
     9     3     4   ar
    10     4     5   ar
    11     5     6   ar
    12     6     7   ar
    13     7     8   ar
    14     8     9    1
    15     9    21    1
    16    21    22    1
    17    22    23    1
    18    23    24    1
    19    23    25    1
    20     9    10   am
    21    10    11    2
    22    10    12    1
    23    12    26    1
    24    26    27    1
    25    27    28    1
    26    27    29    2
    27    16    17   ar
    28    17    18   ar
    29    18    13   ar
    30    12     1    1
    31     8     3   ar
@<TRIPOS>MOLECULE
*****
 29 31 0 0 0
SMALL
GASTEIGER

@<TRIPOS>ATOM
      1 C         141.5299  141.6418  164.5764 C.3     1  UNL1        0.1232
      2 S         140.6676  140.4846  164.1675 S.3     1  UNL1       -0.1046
      3 C         140.4122  139.9494  162.7896 C.ar    1  UNL1        0.0393
      4 C         139.4817  138.7733  162.8223 C.ar    1  UNL1        0.0074
      5 C         139.0952  138.0872  161.5457 C.ar    1  UNL1        0.0006
      6 C         139.6391  138.5771  160.2364 C.ar    1  UNL1        0.0013
      7 C         140.5696  139.7532  160.2038 C.ar    1  UNL1        0.0154
      8 C         140.9561  140.4393  161.4804 C.ar    1  UNL1        0.0596
      9 N         141.8897  141.5854  161.2257 N.am    1  UNL1       -0.2538
     10 C         142.5100  142.5246  162.2172 C.2     1  UNL1        0.2709
     11 O         143.4094  143.5779  161.6414 O.2     1  UNL1       -0.2706
     12 C         142.3499  142.5497  163.7084 C.3     1  UNL1        0.2585
     13 C         141.6763  142.5037  168.9906 C.ar    1  UNL1        0.1387
     14 C         142.7448  141.6649  168.3544 C.ar    1  UNL1        0.0366
     15 C         142.6960  141.3775  166.8830 C.ar    1  UNL1       -0.0002
     16 C         141.5787  141.9291  166.0478 C.ar    1  UNL1       -0.0080
     17 C         140.5103  142.7679  166.6840 C.ar    1  UNL1       -0.0002
     18 C         140.5590  143.0553  168.1554 C.ar    1  UNL1        0.0366
     19 C         141.4962  141.6858  171.4501 C.3     1  UNL1        0.2525
     20 O         141.7252  142.7910  170.4620 O.3     1  UNL1       -0.4714
     21 C         142.2508  141.8238  159.7894 C.3     1  UNL1        0.1156
     22 C         141.5237  142.8692  158.9968 C.3     1  UNL1        0.0943
     23 N         140.3184  143.5474  159.5776 N.3     1  UNL1       -0.2688
     24 C         138.9732  142.8893  159.4913 C.3     1  UNL1        0.0897
     25 C         140.4582  144.8835  160.2447 C.3     1  UNL1        0.0897
     26 O         143.1102  143.6248  164.4267 O.3     1  UNL1       -0.4415
     27 C         144.5145  143.3698  164.8881 C.2     1  UNL1        0.3179
     28 C         145.3125  142.2542  164.2810 C.3     1  UNL1        0.1212
     29 O         145.1208  144.2304  165.9567 O.2     1  UNL1       -0.2501
@<TRIPOS>BOND
     1    19    20    1
     2    20    13    1
     3    13    14   ar
     4    14    15   ar
     5    15    16   ar
     6     1    16    1
     7     1     2    1
     8     2     3    1
     9     3     4   ar
    10     4     5   ar
    11     5     6   ar
    12     6     7   ar
    13     7     8   ar
    14     8     9    1
    15     9    21    1
    16    21    22    1
    17    22    23    1
    18    23    24    1
    19    23    25    1
    20     9    10   am
    21    10    11    2
    22    10    12    1
    23    12    26    1
    24    26    27    1
    25    27    28    1
    26    27    29    2
    27    16    17   ar
    28    17    18   ar
    29    18    13   ar
    30    12     1    1
    31     8     3   ar
@<TRIPOS>MOLECULE
*****
 29 31 0 0 0
SMALL
GASTEIGER

@<TRIPOS>ATOM
      1 C         140.7255  141.6372  164.3871 C.3     1  UNL1        0.1232
      2 S         141.8323  142.1281  163.5016 S.3     1  UNL1       -0.1046
      3 C         141.8175  142.3413  162.0169 C.ar    1  UNL1        0.0393
      4 C         143.1408  142.8454  161.5225 C.ar    1  UNL1        0.0074
      5 C         143.3389  143.1245  160.0621 C.ar    1  UNL1        0.0006
      6 C         142.2136  142.8995  159.0961 C.ar    1  UNL1        0.0013
      7 C         140.8903  142.3954  159.5906 C.ar    1  UNL1        0.0154
      8 C         140.6922  142.1163  161.0510 C.ar    1  UNL1        0.0596
      9 N         139.3038  141.6224  161.3312 N.am    1  UNL1       -0.2538
     10 C         138.6977  141.2317  162.6465 C.2     1  UNL1        0.2709
     11 O         137.2703  140.7738  162.5950 O.2     1  UNL1       -0.2706
     12 C         139.3305  141.2382  164.0065 C.3     1  UNL1        0.2585
     13 C         141.7218  141.3192  168.7639 C.ar    1  UNL1        0.1387
     14 C         142.1202  140.2216  167.8223 C.ar    1  UNL1        0.0366
     15 C         141.7881  140.3275  166.3634 C.ar    1  UNL1       -0.0002
     16 C         141.0576  141.5312  165.8460 C.ar    1  UNL1       -0.0080
     17 C         140.6592  142.6288  166.7875 C.ar    1  UNL1       -0.0002
     18 C         140.9913  142.5229  168.2465 C.ar    1  UNL1        0.0366
     19 C         142.8470  140.0448  170.7285 C.3     1  UNL1        0.2525
     20 O         142.0539  141.2132  170.2227 O.3     1  UNL1       -0.4714
     21 C         138.4022  141.5037  160.1383 C.3     1  UNL1        0.1156
     22 C         138.1431  140.1596  159.5247 C.3     1  UNL1        0.0943
     23 N         139.1448  139.0550  159.6880 N.3     1  UNL1       -0.2688
     24 C         139.0659  138.1405  160.8744 C.3     1  UNL1        0.0897
     25 C         140.2251  138.8649  158.6650 C.3     1  UNL1        0.0897
     26 O         138.4521  140.7861  165.1352 O.3     1  UNL1       -0.4415
     27 C         138.3854  139.3320  165.4975 C.2     1  UNL1        0.3179
     28 C         138.0620  138.9237  166.9042 C.3     1  UNL1        0.1212
     29 O         138.6422  138.2863  164.4532 O.2     1  UNL1       -0.2501
@<TRIPOS>BOND
     1    19    20    1
     2    20    13    1
     3    13    14   ar
     4    14    15   ar
     5    15    16   ar
     6     1    16    1
     7     1     2    1
     8     2     3    1
     9     3     4   ar
    10     4     5   ar
    11     5     6   ar
    12     6     7   ar
    13     7     8   ar
    14     8     9    1
    15     9    21    1
    16    21    22    1
    17    22    23    1
    18    23    24    1
    19    23    25    1
    20     9    10   am
    21    10    11    2
    22    10    12    1
    23    12    26    1
    24    26    27    1
    25    27    28    1
    26    27    29    2
    27    16    17   ar
    28    17    18   ar
    29    18    13   ar
    30    12     1    1
    31     8     3   ar
