@<TRIPOS>MOLECULE
*****
 29 32 0 0 0
SMALL
GASTEIGER

@<TRIPOS>ATOM
      1 C         142.0216  137.4724  157.6579 C.2     1  UNL1       -0.0207
      2 C         142.8320  137.6539  158.9070 C.2     1  UNL1       -0.0036
      3 C         142.2235  138.3193  160.1057 C.2     1  UNL1        0.0392
      4 C         140.8046  138.8032  160.0553 C.2     1  UNL1        0.1887
      5 N         139.9418  139.4904  161.0719 N.2     1  UNL1       -0.0676
      6 C         138.5982  139.7336  160.4510 C.cat   1  UNL1        0.4252
      7 N         138.6306  139.1968  159.0507 N.2     1  UNL1       -0.0714
      8 C         139.9942  138.6217  158.8062 C.2     1  UNL1        0.1742
      9 C         140.6027  137.9563  157.6075 C.3     1  UNL1        0.0906
     10 N         137.4276  140.3972  161.1140 N.pl3   1  UNL1       -0.1848
     11 H         136.5103  140.1441  160.8615 H       1  UNL1        0.2530
     12 C         137.6547  141.4466  162.1615 C.ar    1  UNL1        0.1936
     13 C         137.8139  141.0491  163.5991 C.ar    1  UNL1        0.0516
     14 C         138.0410  142.0984  164.6466 C.ar    1  UNL1        0.0098
     15 C         138.1088  143.5452  164.2566 C.ar    1  UNL1        0.0907
     16 C         137.9496  143.9427  162.8190 C.ar    1  UNL1        0.1055
     17 N         137.7225  142.8934  161.7715 N.ar    1  UNL1       -0.2149
     18 C         138.3359  144.5946  165.3041 C.3     1  UNL1        0.4200
     19 F         138.5630  145.6439  166.3516 F       1  UNL1       -0.1658
     20 F         136.8535  144.7346  165.4852 F       1  UNL1       -0.1658
     21 F         139.8183  144.4546  165.1230 F       1  UNL1       -0.1658
     22 C         142.6302  136.8070  156.4591 C.3     1  UNL1        0.0954
     23 C         142.1131  130.8732  155.7365 C.3     1  UNL1        0.0897
     24 N         142.2424  132.3566  155.9171 N.3     1  UNL1       -0.2691
     25 C         143.1970  132.9079  156.9343 C.3     1  UNL1        0.0897
     26 C         143.3263  134.3914  157.1150 C.3     1  UNL1        0.0899
     27 N         142.5009  135.3235  156.2785 N.3     1  UNL1       -0.2668
     28 C         141.5462  134.7722  155.2613 C.3     1  UNL1        0.0899
     29 C         141.4169  133.2888  155.0807 C.3     1  UNL1        0.0897
@<TRIPOS>BOND
     1    23    24    1
     2    24    25    1
     3    25    26    1
     4    26    27    1
     5    27    22    1
     6    22     1    1
     7     1     2    2
     8     2     3    1
     9     3     4    2
    10     4     5    1
    11     5     6    2
    12     6    10    1
    13    10    12    1
    14    12    13   ar
    15    13    14   ar
    16    14    15   ar
    17    15    18    1
    18    18    19    1
    19    18    20    1
    20    18    21    1
    21    15    16   ar
    22    16    17   ar
    23     6     7    1
    24     7     8    2
    25     8     9    1
    26    27    28    1
    27    28    29    1
    28    29    24    1
    29     9     1    1
    30     8     4    1
    31    17    12   ar
    32    10    11    1
@<TRIPOS>MOLECULE
*****
 29 32 0 0 0
SMALL
GASTEIGER

@<TRIPOS>ATOM
      1 C         138.1481  139.5542  161.1457 C.2     1  UNL1       -0.0207
      2 C         138.8435  138.2263  161.1995 C.2     1  UNL1       -0.0036
      3 C         139.2223  137.6312  162.5233 C.2     1  UNL1        0.0392
      4 C         138.9057  138.3641  163.7932 C.2     1  UNL1        0.1887
      5 N         139.1548  138.0294  165.2340 N.2     1  UNL1       -0.0676
      6 C         138.6132  139.1505  166.0706 C.cat   1  UNL1        0.4252
      7 N         138.0295  140.1780  165.1468 N.2     1  UNL1       -0.0714
      8 C         138.2102  139.6920  163.7393 C.2     1  UNL1        0.1742
      9 C         137.8314  140.2871  162.4155 C.3     1  UNL1        0.0906
     10 N         138.6491  139.2301  167.5681 N.pl3   1  UNL1       -0.1848
     11 H         138.0265  138.6884  168.1049 H       1  UNL1        0.2530
     12 C         139.6336  140.1350  168.2477 C.ar    1  UNL1        0.1936
     13 C         140.4569  141.0914  167.4368 C.ar    1  UNL1        0.0516
     14 C         141.4415  141.9964  168.1163 C.ar    1  UNL1        0.0098
     15 C         141.6027  141.9449  169.6068 C.ar    1  UNL1        0.0907
     16 C         140.7794  140.9885  170.4176 C.ar    1  UNL1        0.1055
     17 N         139.7949  140.0836  169.7381 N.ar    1  UNL1       -0.2149
     18 C         142.5872  142.8498  170.2863 C.3     1  UNL1        0.4200
     19 F         143.5717  143.7548  170.9659 F       1  UNL1       -0.1658
     20 F         143.5873  141.7326  170.3252 F       1  UNL1       -0.1658
     21 F         141.5871  143.9671  170.2475 F       1  UNL1       -0.1658
     22 C         137.7692  140.1493  159.8218 C.3     1  UNL1        0.0954
     23 C         141.6189  143.7296  156.9302 C.3     1  UNL1        0.0897
     24 N         140.6565  142.8345  157.6531 N.3     1  UNL1       -0.2691
     25 C         140.9195  141.3600  157.7338 C.3     1  UNL1        0.0897
     26 C         139.9571  140.4649  158.4567 C.3     1  UNL1        0.0899
     27 N         138.7316  141.0444  159.0989 N.3     1  UNL1       -0.2668
     28 C         138.4686  142.5190  159.0182 C.3     1  UNL1        0.0899
     29 C         139.4310  143.4140  158.2953 C.3     1  UNL1        0.0897
@<TRIPOS>BOND
     1    23    24    1
     2    24    25    1
     3    25    26    1
     4    26    27    1
     5    27    22    1
     6    22     1    1
     7     1     2    2
     8     2     3    1
     9     3     4    2
    10     4     5    1
    11     5     6    2
    12     6    10    1
    13    10    12    1
    14    12    13   ar
    15    13    14   ar
    16    14    15   ar
    17    15    18    1
    18    18    19    1
    19    18    20    1
    20    18    21    1
    21    15    16   ar
    22    16    17   ar
    23     6     7    1
    24     7     8    2
    25     8     9    1
    26    27    28    1
    27    28    29    1
    28    29    24    1
    29     9     1    1
    30     8     4    1
    31    17    12   ar
    32    10    11    1
@<TRIPOS>MOLECULE
*****
 29 32 0 0 0
SMALL
GASTEIGER

@<TRIPOS>ATOM
      1 C         142.8182  138.4051  164.9438 C.2     1  UNL1       -0.0207
      2 C         141.5326  137.6695  164.7075 C.2     1  UNL1       -0.0036
      3 C         141.0857  137.3711  163.3071 C.2     1  UNL1        0.0392
      4 C         141.9244  137.8084  162.1430 C.2     1  UNL1        0.1887
      5 N         141.7422  137.6574  160.6617 N.2     1  UNL1       -0.0676
      6 C         142.9153  138.2997  159.9825 C.cat   1  UNL1        0.4252
      7 N         143.8225  138.8477  161.0440 N.2     1  UNL1       -0.0714
      8 C         143.2101  138.5441  162.3792 C.2     1  UNL1        0.1742
      9 C         143.6570  138.8424  163.7797 C.3     1  UNL1        0.0906
     10 N         143.1416  138.3799  158.5018 N.pl3   1  UNL1       -0.1848
     11 H         143.5860  139.1680  158.1137 H       1  UNL1        0.2530
     12 C         142.6908  137.2593  157.6125 C.ar    1  UNL1        0.1936
     13 C         141.5645  137.4757  156.6457 C.ar    1  UNL1        0.0516
     14 C         141.1137  136.3551  155.7563 C.ar    1  UNL1        0.0098
     15 C         141.7893  135.0180  155.8337 C.ar    1  UNL1        0.0907
     16 C         142.9155  134.8016  156.8005 C.ar    1  UNL1        0.1055
     17 N         143.3663  135.9222  157.6898 N.ar    1  UNL1       -0.2149
     18 C         141.3385  133.8973  154.9444 C.3     1  UNL1        0.4200
     19 F         140.8877  132.7767  154.0550 F       1  UNL1       -0.1658
     20 F         141.0689  134.8796  153.8433 F       1  UNL1       -0.1658
     21 F         141.6081  132.9150  156.0454 F       1  UNL1       -0.1658
     22 C         143.2652  138.7035  166.3443 C.3     1  UNL1        0.0954
     23 C         140.7113  143.1780  169.4194 C.3     1  UNL1        0.0897
     24 N         141.3497  142.0594  168.6506 N.3     1  UNL1       -0.2691
     25 C         141.5694  142.1946  167.1730 C.3     1  UNL1        0.0897
     26 C         142.2079  141.0760  166.4042 C.3     1  UNL1        0.0899
     27 N         142.6267  139.8221  167.1130 N.3     1  UNL1       -0.2668
     28 C         142.4070  139.6870  168.5907 C.3     1  UNL1        0.0899
     29 C         141.7685  140.8056  169.3595 C.3     1  UNL1        0.0897
@<TRIPOS>BOND
     1    23    24    1
     2    24    25    1
     3    25    26    1
     4    26    27    1
     5    27    22    1
     6    22     1    1
     7     1     2    2
     8     2     3    1
     9     3     4    2
    10     4     5    1
    11     5     6    2
    12     6    10    1
    13    10    12    1
    14    12    13   ar
    15    13    14   ar
    16    14    15   ar
    17    15    18    1
    18    18    19    1
    19    18    20    1
    20    18    21    1
    21    15    16   ar
    22    16    17   ar
    23     6     7    1
    24     7     8    2
    25     8     9    1
    26    27    28    1
    27    28    29    1
    28    29    24    1
    29     9     1    1
    30     8     4    1
    31    17    12   ar
    32    10    11    1
@<TRIPOS>MOLECULE
*****
 29 32 0 0 0
SMALL
GASTEIGER

@<TRIPOS>ATOM
      1 C         142.0614  137.0852  156.9602 C.2     1  UNL1       -0.0207
      2 C         140.6763  137.4848  156.5459 C.2     1  UNL1       -0.0036
      3 C         139.8336  138.3254  157.4587 C.2     1  UNL1        0.0392
      4 C         140.3761  138.7663  158.7859 C.2     1  UNL1        0.1887
      5 N         139.7832  139.5935  159.8878 N.2     1  UNL1       -0.0676
      6 C         140.8019  139.7051  160.9831 C.cat   1  UNL1        0.4252
      7 N         142.0244  138.9469  160.5581 N.2     1  UNL1       -0.0714
      8 C         141.7612  138.3667  159.2001 C.2     1  UNL1        0.1742
      9 C         142.6039  137.5261  158.2873 C.3     1  UNL1        0.0906
     10 N         140.6286  140.4450  162.2764 N.pl3   1  UNL1       -0.1848
     11 H         141.0037  141.3493  162.3803 H       1  UNL1        0.2530
     12 C         139.8837  139.8071  163.4114 C.ar    1  UNL1        0.1936
     13 C         140.0308  138.3374  163.6731 C.ar    1  UNL1        0.0516
     14 C         139.2859  137.6995  164.8081 C.ar    1  UNL1        0.0098
     15 C         138.3940  138.5313  165.6814 C.ar    1  UNL1        0.0907
     16 C         138.2470  140.0010  165.4197 C.ar    1  UNL1        0.1055
     17 N         138.9918  140.6389  164.2847 N.ar    1  UNL1       -0.2149
     18 C         137.6491  137.8934  166.8164 C.3     1  UNL1        0.4200
     19 F         136.9042  137.2555  167.9514 F       1  UNL1       -0.1658
     20 F         137.5598  139.2230  167.5051 F       1  UNL1       -0.1658
     21 F         137.7384  136.5639  166.1278 F       1  UNL1       -0.1658
     22 C         142.9041  136.2446  156.0473 C.3     1  UNL1        0.0954
     23 C         142.9884  130.2795  156.6882 C.3     1  UNL1        0.0897
     24 N         142.9673  131.7708  156.5280 N.3     1  UNL1       -0.2691
     25 C         143.9744  132.6168  157.2490 C.3     1  UNL1        0.0897
     26 C         143.9534  134.1081  157.0887 C.3     1  UNL1        0.0899
     27 N         142.9252  134.7533  156.2075 N.3     1  UNL1       -0.2668
     28 C         141.9180  133.9072  155.4865 C.3     1  UNL1        0.0899
     29 C         141.9391  132.4160  155.6468 C.3     1  UNL1        0.0897
@<TRIPOS>BOND
     1    23    24    1
     2    24    25    1
     3    25    26    1
     4    26    27    1
     5    27    22    1
     6    22     1    1
     7     1     2    2
     8     2     3    1
     9     3     4    2
    10     4     5    1
    11     5     6    2
    12     6    10    1
    13    10    12    1
    14    12    13   ar
    15    13    14   ar
    16    14    15   ar
    17    15    18    1
    18    18    19    1
    19    18    20    1
    20    18    21    1
    21    15    16   ar
    22    16    17   ar
    23     6     7    1
    24     7     8    2
    25     8     9    1
    26    27    28    1
    27    28    29    1
    28    29    24    1
    29     9     1    1
    30     8     4    1
    31    17    12   ar
    32    10    11    1
@<TRIPOS>MOLECULE
*****
 29 32 0 0 0
SMALL
GASTEIGER

@<TRIPOS>ATOM
      1 C         144.4429  141.8380  157.0441 C.2     1  UNL1       -0.0207
      2 C         144.4438  142.7396  158.2429 C.2     1  UNL1       -0.0036
      3 C         144.0411  142.2036  159.5847 C.2     1  UNL1        0.0392
      4 C         143.6374  140.7661  159.7277 C.2     1  UNL1        0.1887
      5 N         143.1948  139.9610  160.9136 N.2     1  UNL1       -0.0676
      6 C         142.9204  138.5619  160.4476 C.cat   1  UNL1        0.4252
      7 N         143.1933  138.5023  158.9739 N.2     1  UNL1       -0.0714
      8 C         143.6364  139.8645  158.5290 C.2     1  UNL1        0.1742
      9 C         144.0392  140.4004  157.1871 C.3     1  UNL1        0.0906
     10 N         142.4548  137.4225  161.3049 N.pl3   1  UNL1       -0.1848
     11 H         142.8060  136.5156  161.1517 H       1  UNL1        0.2530
     12 C         141.4539  137.6648  162.3957 C.ar    1  UNL1        0.1936
     13 C         140.0038  137.8447  162.0566 C.ar    1  UNL1        0.0516
     14 C         139.0030  138.0870  163.1473 C.ar    1  UNL1        0.0098
     15 C         139.4523  138.1494  164.5771 C.ar    1  UNL1        0.0907
     16 C         140.9024  137.9694  164.9161 C.ar    1  UNL1        0.1055
     17 N         141.9032  137.7271  163.8254 N.ar    1  UNL1       -0.2149
     18 C         138.4515  138.3917  165.6678 C.3     1  UNL1        0.4200
     19 F         137.4507  138.6339  166.7586 F       1  UNL1       -0.1658
     20 F         138.3088  136.9116  165.8657 F       1  UNL1       -0.1658
     21 F         138.5942  139.8717  165.4700 F       1  UNL1       -0.1658
     22 C         144.8457  142.3739  155.7022 C.3     1  UNL1        0.0954
     23 C         150.4300  141.5166  153.6823 C.3     1  UNL1        0.0897
     24 N         149.0339  141.7309  154.1873 N.3     1  UNL1       -0.2691
     25 C         148.7883  141.9223  155.6545 C.3     1  UNL1        0.0897
     26 C         147.3921  142.1367  156.1596 C.3     1  UNL1        0.0899
     27 N         146.2417  142.1596  155.1972 N.3     1  UNL1       -0.2668
     28 C         146.4874  141.9681  153.7299 C.3     1  UNL1        0.0899
     29 C         147.8835  141.7538  153.2249 C.3     1  UNL1        0.0897
@<TRIPOS>BOND
     1    23    24    1
     2    24    25    1
     3    25    26    1
     4    26    27    1
     5    27    22    1
     6    22     1    1
     7     1     2    2
     8     2     3    1
     9     3     4    2
    10     4     5    1
    11     5     6    2
    12     6    10    1
    13    10    12    1
    14    12    13   ar
    15    13    14   ar
    16    14    15   ar
    17    15    18    1
    18    18    19    1
    19    18    20    1
    20    18    21    1
    21    15    16   ar
    22    16    17   ar
    23     6     7    1
    24     7     8    2
    25     8     9    1
    26    27    28    1
    27    28    29    1
    28    29    24    1
    29     9     1    1
    30     8     4    1
    31    17    12   ar
    32    10    11    1
@<TRIPOS>MOLECULE
*****
 29 32 0 0 0
SMALL
GASTEIGER

@<TRIPOS>ATOM
      1 C         138.4238  139.0491  165.7370 C.2     1  UNL1       -0.0207
      2 C         138.8644  137.7593  165.1107 C.2     1  UNL1       -0.0036
      3 C         138.9612  137.6448  163.6183 C.2     1  UNL1        0.0392
      4 C         138.6173  138.8201  162.7520 C.2     1  UNL1        0.1887
      5 N         138.6178  139.0039  161.2633 N.2     1  UNL1       -0.0676
      6 C         138.1774  140.4074  160.9695 C.cat   1  UNL1        0.4252
      7 N         137.9048  141.0909  162.2766 N.2     1  UNL1       -0.0714
      8 C         138.1766  140.1099  163.3782 C.2     1  UNL1        0.1742
      9 C         138.0799  140.2244  164.8707 C.3     1  UNL1        0.0906
     10 N         138.0347  141.0199  159.6076 N.pl3   1  UNL1       -0.1848
     11 H         137.3345  140.6990  158.9945 H       1  UNL1        0.2530
     12 C         138.9589  142.1213  159.1801 C.ar    1  UNL1        0.1936
     13 C         139.7613  141.9805  157.9205 C.ar    1  UNL1        0.0516
     14 C         140.6855  143.0819  157.4930 C.ar    1  UNL1        0.0098
     15 C         140.8073  144.3241  158.3250 C.ar    1  UNL1        0.0907
     16 C         140.0049  144.4649  159.5844 C.ar    1  UNL1        0.1055
     17 N         139.0807  143.3635  160.0120 N.ar    1  UNL1       -0.2149
     18 C         141.7314  145.4255  157.8974 C.3     1  UNL1        0.4200
     19 F         142.6556  146.5269  157.4699 F       1  UNL1       -0.1658
     20 F         140.5577  146.3434  157.7248 F       1  UNL1       -0.1658
     21 F         142.9052  144.5077  158.0700 F       1  UNL1       -0.1658
     22 C         138.3270  139.1636  167.2295 C.3     1  UNL1        0.0954
     23 C         142.6235  142.0065  170.3050 C.3     1  UNL1        0.0897
     24 N         141.5494  141.2958  169.5361 N.3     1  UNL1       -0.2691
     25 C         140.2120  141.0493  170.1691 C.3     1  UNL1        0.0897
     26 C         139.1378  140.3386  169.4002 C.3     1  UNL1        0.0899
     27 N         139.4011  139.8743  167.9984 N.3     1  UNL1       -0.2668
     28 C         140.7385  140.1208  167.3654 C.3     1  UNL1        0.0899
     29 C         141.8126  140.8315  168.1342 C.3     1  UNL1        0.0897
@<TRIPOS>BOND
     1    23    24    1
     2    24    25    1
     3    25    26    1
     4    26    27    1
     5    27    22    1
     6    22     1    1
     7     1     2    2
     8     2     3    1
     9     3     4    2
    10     4     5    1
    11     5     6    2
    12     6    10    1
    13    10    12    1
    14    12    13   ar
    15    13    14   ar
    16    14    15   ar
    17    15    18    1
    18    18    19    1
    19    18    20    1
    20    18    21    1
    21    15    16   ar
    22    16    17   ar
    23     6     7    1
    24     7     8    2
    25     8     9    1
    26    27    28    1
    27    28    29    1
    28    29    24    1
    29     9     1    1
    30     8     4    1
    31    17    12   ar
    32    10    11    1
@<TRIPOS>MOLECULE
*****
 29 32 0 0 0
SMALL
GASTEIGER

@<TRIPOS>ATOM
      1 C         143.0150  138.6698  160.7080 C.2     1  UNL1       -0.0207
      2 C         141.7629  137.8827  160.9577 C.2     1  UNL1       -0.0036
      3 C         141.3268  137.5930  162.3634 C.2     1  UNL1        0.0392
      4 C         142.1430  138.0905  163.5194 C.2     1  UNL1        0.1887
      5 N         141.9647  137.9614  165.0032 N.2     1  UNL1       -0.0676
      6 C         143.1068  138.6688  165.6705 C.cat   1  UNL1        0.4252
      7 N         143.9908  139.2351  164.5992 N.2     1  UNL1       -0.0714
      8 C         143.3952  138.8777  163.2697 C.2     1  UNL1        0.1742
      9 C         143.8312  139.1674  161.8641 C.3     1  UNL1        0.0906
     10 N         143.3262  138.7888  167.1496 N.pl3   1  UNL1       -0.1848
     11 H         144.0148  138.2408  167.5911 H       1  UNL1        0.2530
     12 C         142.4967  139.7437  167.9558 C.ar    1  UNL1        0.1936
     13 C         141.1958  140.2530  167.4095 C.ar    1  UNL1        0.0516
     14 C         140.3663  141.2079  168.2157 C.ar    1  UNL1        0.0098
     15 C         140.8376  141.6535  169.5683 C.ar    1  UNL1        0.0907
     16 C         142.1384  141.1441  170.1146 C.ar    1  UNL1        0.1055
     17 N         142.9680  140.1892  169.3083 N.ar    1  UNL1       -0.2149
     18 C         140.0081  142.6083  170.3745 C.3     1  UNL1        0.4200
     19 F         139.1785  143.5632  171.1808 F       1  UNL1       -0.1658
     20 F         141.1432  143.5889  170.3812 F       1  UNL1       -0.1658
     21 F         138.8729  141.6278  170.3679 F       1  UNL1       -0.1658
     22 C         143.4511  138.9595  159.3023 C.3     1  UNL1        0.0954
     23 C         140.1396  137.0460  154.6794 C.3     1  UNL1        0.0897
     24 N         140.9675  137.5244  155.8351 N.3     1  UNL1       -0.2691
     25 C         141.9435  136.5952  156.4939 C.3     1  UNL1        0.0897
     26 C         142.7714  137.0736  157.6497 C.3     1  UNL1        0.0899
     27 N         142.6233  138.4811  158.1466 N.3     1  UNL1       -0.2668
     28 C         141.6472  139.4103  157.4877 C.3     1  UNL1        0.0899
     29 C         140.8193  138.9319  156.3320 C.3     1  UNL1        0.0897
@<TRIPOS>BOND
     1    23    24    1
     2    24    25    1
     3    25    26    1
     4    26    27    1
     5    27    22    1
     6    22     1    1
     7     1     2    2
     8     2     3    1
     9     3     4    2
    10     4     5    1
    11     5     6    2
    12     6    10    1
    13    10    12    1
    14    12    13   ar
    15    13    14   ar
    16    14    15   ar
    17    15    18    1
    18    18    19    1
    19    18    20    1
    20    18    21    1
    21    15    16   ar
    22    16    17   ar
    23     6     7    1
    24     7     8    2
    25     8     9    1
    26    27    28    1
    27    28    29    1
    28    29    24    1
    29     9     1    1
    30     8     4    1
    31    17    12   ar
    32    10    11    1
@<TRIPOS>MOLECULE
*****
 29 32 0 0 0
SMALL
GASTEIGER

@<TRIPOS>ATOM
      1 C         138.3051  139.8536  164.8854 C.2     1  UNL1       -0.0207
      2 C         138.0287  141.3047  164.6250 C.2     1  UNL1       -0.0036
      3 C         137.9857  141.8190  163.2166 C.2     1  UNL1        0.0392
      4 C         138.2192  140.8822  162.0686 C.2     1  UNL1        0.1887
      5 N         138.2384  141.0986  160.5843 N.2     1  UNL1       -0.0676
      6 C         138.5266  139.7813  159.9275 C.cat   1  UNL1        0.4252
      7 N         138.6856  138.7507  161.0057 N.2     1  UNL1       -0.0714
      8 C         138.4956  139.4310  162.3290 C.2     1  UNL1        0.1742
      9 C         138.5385  138.9168  163.7374 C.3     1  UNL1        0.0906
     10 N         138.6366  139.5373  158.4515 N.pl3   1  UNL1       -0.1848
     11 H         137.9712  139.9243  157.8377 H       1  UNL1        0.2530
     12 C         139.7603  138.7037  157.9108 C.ar    1  UNL1        0.1936
     13 C         141.1592  138.9169  158.4087 C.ar    1  UNL1        0.0516
     14 C         142.2829  138.0833  157.8681 C.ar    1  UNL1        0.0098
     15 C         142.0078  137.0365  156.8295 C.ar    1  UNL1        0.0907
     16 C         140.6090  136.8233  156.3316 C.ar    1  UNL1        0.1055
     17 N         139.4853  137.6570  156.8723 N.ar    1  UNL1       -0.2149
     18 C         143.1315  136.2029  156.2888 C.3     1  UNL1        0.4200
     19 F         144.2553  135.3693  155.7481 F       1  UNL1       -0.1658
     20 F         143.9201  137.4477  156.0086 F       1  UNL1       -0.1658
     21 F         142.3429  134.9581  156.5691 F       1  UNL1       -0.1658
     22 C         138.3480  139.3392  166.2938 C.3     1  UNL1        0.0954
     23 C         142.9717  140.7297  169.8558 C.3     1  UNL1        0.0897
     24 N         141.8158  140.3821  168.9653 N.3     1  UNL1       -0.2691
     25 C         142.0498  140.0876  167.5133 C.3     1  UNL1        0.0897
     26 C         140.8938  139.7400  166.6227 C.3     1  UNL1        0.0899
     27 N         139.5039  139.6868  167.1843 N.3     1  UNL1       -0.2668
     28 C         139.2700  139.9813  168.6364 C.3     1  UNL1        0.0899
     29 C         140.4259  140.3290  169.5269 C.3     1  UNL1        0.0897
@<TRIPOS>BOND
     1    23    24    1
     2    24    25    1
     3    25    26    1
     4    26    27    1
     5    27    22    1
     6    22     1    1
     7     1     2    2
     8     2     3    1
     9     3     4    2
    10     4     5    1
    11     5     6    2
    12     6    10    1
    13    10    12    1
    14    12    13   ar
    15    13    14   ar
    16    14    15   ar
    17    15    18    1
    18    18    19    1
    19    18    20    1
    20    18    21    1
    21    15    16   ar
    22    16    17   ar
    23     6     7    1
    24     7     8    2
    25     8     9    1
    26    27    28    1
    27    28    29    1
    28    29    24    1
    29     9     1    1
    30     8     4    1
    31    17    12   ar
    32    10    11    1
@<TRIPOS>MOLECULE
*****
 29 32 0 0 0
SMALL
GASTEIGER

@<TRIPOS>ATOM
      1 C         142.0522  135.8141  155.7880 C.2     1  UNL1       -0.0207
      2 C         140.7267  136.0028  155.1118 C.2     1  UNL1       -0.0036
      3 C         139.7318  136.9766  155.6703 C.2     1  UNL1        0.0392
      4 C         140.0625  137.7616  156.9050 C.2     1  UNL1        0.1887
      5 N         139.2880  138.7857  157.6806 N.2     1  UNL1       -0.0676
      6 C         140.1350  139.2298  158.8362 C.cat   1  UNL1        0.4252
      7 N         141.4328  138.4802  158.7748 N.2     1  UNL1       -0.0714
      8 C         141.3880  137.5728  157.5812 C.2     1  UNL1        0.1742
      9 C         142.3829  136.5991  157.0227 C.3     1  UNL1        0.0906
     10 N         139.7514  140.2452  159.8716 N.pl3   1  UNL1       -0.1848
     11 H         139.7141  141.2000  159.6345 H       1  UNL1        0.2530
     12 C         139.4249  139.8059  161.2681 C.ar    1  UNL1        0.1936
     13 C         138.8928  138.4253  161.5149 C.ar    1  UNL1        0.0516
     14 C         138.5663  137.9859  162.9115 C.ar    1  UNL1        0.0098
     15 C         138.7718  138.9272  164.0612 C.ar    1  UNL1        0.0907
     16 C         139.3038  140.3077  163.8144 C.ar    1  UNL1        0.1055
     17 N         139.6304  140.7471  162.4178 N.ar    1  UNL1       -0.2149
     18 C         138.4452  138.4878  165.4577 C.3     1  UNL1        0.4200
     19 F         138.1187  138.0485  166.8543 F       1  UNL1       -0.1658
     20 F         137.7240  139.7813  165.6960 F       1  UNL1       -0.1658
     21 F         139.1664  137.1944  165.2194 F       1  UNL1       -0.1658
     22 C         143.0472  134.8403  155.2296 C.3     1  UNL1        0.0954
     23 C         143.7211  129.4484  157.7738 C.3     1  UNL1        0.0897
     24 N         143.5526  130.7964  157.1377 N.3     1  UNL1       -0.2691
     25 C         142.4995  131.0050  156.0902 C.3     1  UNL1        0.0897
     26 C         142.3310  132.3530  155.4541 C.3     1  UNL1        0.0899
     27 N         143.2157  133.4923  155.8656 N.3     1  UNL1       -0.2668
     28 C         144.2688  133.2836  156.9132 C.3     1  UNL1        0.0899
     29 C         144.4373  131.9357  157.5492 C.3     1  UNL1        0.0897
@<TRIPOS>BOND
     1    23    24    1
     2    24    25    1
     3    25    26    1
     4    26    27    1
     5    27    22    1
     6    22     1    1
     7     1     2    2
     8     2     3    1
     9     3     4    2
    10     4     5    1
    11     5     6    2
    12     6    10    1
    13    10    12    1
    14    12    13   ar
    15    13    14   ar
    16    14    15   ar
    17    15    18    1
    18    18    19    1
    19    18    20    1
    20    18    21    1
    21    15    16   ar
    22    16    17   ar
    23     6     7    1
    24     7     8    2
    25     8     9    1
    26    27    28    1
    27    28    29    1
    28    29    24    1
    29     9     1    1
    30     8     4    1
    31    17    12   ar
    32    10    11    1
