@<TRIPOS>MOLECULE
*****
 28 32 0 0 0
SMALL
GASTEIGER

@<TRIPOS>ATOM
      1 C         140.0083  142.1453  166.3336 C.3     1  UNL1        0.1596
      2 F         143.3510  143.3946  171.1570 F       1  UNL1       -0.2042
      3 C         142.5154  143.0823  169.9511 C.ar    1  UNL1        0.1401
      4 C         141.0849  143.5304  169.8933 C.ar    1  UNL1        0.0294
      5 C         140.2493  143.2180  168.6875 C.ar    1  UNL1        0.0007
      6 C         140.8440  142.4576  167.5394 C.ar    1  UNL1        0.0089
      7 C         142.2743  142.0096  167.5971 C.ar    1  UNL1        0.0007
      8 C         143.1100  142.3219  168.8029 C.ar    1  UNL1        0.0294
      9 C         139.8430  143.1692  165.2499 C.ar    1  UNL1        0.0089
     10 C         138.4764  143.4840  164.7176 C.ar    1  UNL1        0.0007
     11 C         138.3111  144.5079  163.6339 C.ar    1  UNL1        0.0294
     12 C         139.5124  145.2170  163.0826 C.ar    1  UNL1        0.1401
     13 F         139.3472  146.2409  161.9989 F       1  UNL1       -0.2042
     14 C         140.8790  144.9023  163.6149 C.ar    1  UNL1        0.0294
     15 C         141.0443  143.8783  164.6986 C.ar    1  UNL1        0.0007
     16 O         139.3378  140.8091  166.2114 O.3     1  UNL1       -0.3498
     17 C         139.7410  139.8648  165.1179 C.3     1  UNL1        0.1187
     18 C         138.9831  139.8485  163.8236 C.3     1  UNL1        0.0456
     19 C         139.3864  138.9043  162.7301 C.3     1  UNL1        0.0599
     20 C         140.1123  137.8435  161.9568 C.3     1  UNL1        0.0174
     21 C         141.2203  137.3171  162.8201 C.3     1  UNL1        0.0174
     22 C         141.1792  138.0525  164.1268 C.3     1  UNL1        0.0599
     23 C         140.9023  138.9367  165.3187 C.3     1  UNL1        0.0456
     24 N         140.0458  139.0334  164.0712 N.3     1  UNL1       -0.2751
     25 C         139.6425  139.9777  165.1647 C.3     1  UNL1        0.0720
     26 C         138.8801  139.4686  166.3520 C.3     1  UNL1        0.0160
     27 C         137.7813  138.6238  166.9254 C.3     1  UNL1        0.0014
     28 C         138.6586  139.4317  167.8351 C.3     1  UNL1        0.0014
@<TRIPOS>BOND
     1     2     3    1
     2     3     4   ar
     3     4     5   ar
     4     5     6   ar
     5     6     1    1
     6     1    16    1
     7    16    17    1
     8    17    18    1
     9    18    19    1
    10    19    20    1
    11    20    21    1
    12    21    22    1
    13    22    23    1
    14    22    24    1
    15    24    25    1
    16    25    26    1
    17    26    27    1
    18    27    28    1
    19     1     9    1
    20     9    10   ar
    21    10    11   ar
    22    11    12   ar
    23    12    13    1
    24    12    14   ar
    25    14    15   ar
    26     6     7   ar
    27     7     8   ar
    28     8     3   ar
    29    23    17    1
    30    28    26    1
    31    15     9   ar
    32    24    19    1
@<TRIPOS>MOLECULE
*****
 28 32 0 0 0
SMALL
GASTEIGER

@<TRIPOS>ATOM
      1 C         139.9946  142.1526  166.3323 C.3     1  UNL1        0.1596
      2 F         139.3373  146.2388  161.9883 F       1  UNL1       -0.2042
      3 C         139.5016  145.2172  163.0743 C.ar    1  UNL1        0.1401
      4 C         140.8680  144.9017  163.6067 C.ar    1  UNL1        0.0294
      5 C         141.0323  143.8801  164.6927 C.ar    1  UNL1        0.0007
      6 C         139.8303  143.1741  165.2463 C.ar    1  UNL1        0.0089
      7 C         138.4639  143.4895  164.7140 C.ar    1  UNL1        0.0007
      8 C         138.2996  144.5111  163.6280 C.ar    1  UNL1        0.0294
      9 C         140.8306  142.4669  167.5374 C.ar    1  UNL1        0.0089
     10 C         142.2566  142.0059  167.6021 C.ar    1  UNL1        0.0007
     11 C         143.0925  142.3203  168.8073 C.ar    1  UNL1        0.0294
     12 C         142.5025  143.0957  169.9477 C.ar    1  UNL1        0.1401
     13 F         143.3384  143.4101  171.1529 F       1  UNL1       -0.2042
     14 C         141.0766  143.5567  169.8831 C.ar    1  UNL1        0.0294
     15 C         140.2406  143.2423  168.6778 C.ar    1  UNL1        0.0007
     16 O         139.3231  140.8166  166.2131 O.3     1  UNL1       -0.3498
     17 C         139.7212  139.8720  165.1179 C.3     1  UNL1        0.1187
     18 C         138.9461  139.8428  163.8340 C.3     1  UNL1        0.0456
     19 C         139.3442  138.8983  162.7389 C.3     1  UNL1        0.0599
     20 C         140.0705  137.8419  161.9600 C.3     1  UNL1        0.0174
     21 C         141.1954  137.3304  162.8102 C.3     1  UNL1        0.0174
     22 C         141.1644  138.0706  164.1145 C.3     1  UNL1        0.0599
     23 C         140.8945  138.9567  165.3066 C.3     1  UNL1        0.0456
     24 N         140.0203  139.0396  164.0704 N.3     1  UNL1       -0.2751
     25 C         139.6221  139.9841  165.1656 C.3     1  UNL1        0.0720
     26 C         138.8624  139.4759  166.3550 C.3     1  UNL1        0.0160
     27 C         138.6404  139.4447  167.8381 C.3     1  UNL1        0.0014
     28 C         137.7686  138.6270  166.9318 C.3     1  UNL1        0.0014
@<TRIPOS>BOND
     1     2     3    1
     2     3     4   ar
     3     4     5   ar
     4     5     6   ar
     5     6     1    1
     6     1    16    1
     7    16    17    1
     8    17    18    1
     9    18    19    1
    10    19    20    1
    11    20    21    1
    12    21    22    1
    13    22    23    1
    14    22    24    1
    15    24    25    1
    16    25    26    1
    17    26    27    1
    18    27    28    1
    19     1     9    1
    20     9    10   ar
    21    10    11   ar
    22    11    12   ar
    23    12    13    1
    24    12    14   ar
    25    14    15   ar
    26     6     7   ar
    27     7     8   ar
    28     8     3   ar
    29    23    17    1
    30    28    26    1
    31    15     9   ar
    32    24    19    1
@<TRIPOS>MOLECULE
*****
 28 32 0 0 0
SMALL
GASTEIGER

@<TRIPOS>ATOM
      1 C         140.7053  139.9700  166.5339 C.3     1  UNL1        0.1596
      2 F         145.8799  140.6709  163.5788 F       1  UNL1       -0.2042
      3 C         144.5862  140.4957  164.3176 C.ar    1  UNL1        0.1401
      4 C         144.3231  139.2308  165.0797 C.ar    1  UNL1        0.0294
      5 C         143.0294  139.0556  165.8185 C.ar    1  UNL1        0.0007
      6 C         141.9989  140.1453  165.7951 C.ar    1  UNL1        0.0089
      7 C         142.2619  141.4101  165.0330 C.ar    1  UNL1        0.0007
      8 C         143.5556  141.5853  164.2943 C.ar    1  UNL1        0.0294
      9 C         140.4112  140.8102  167.7412 C.ar    1  UNL1        0.0089
     10 C         140.6041  142.2968  167.6855 C.ar    1  UNL1        0.0007
     11 C         140.3100  143.1369  168.8928 C.ar    1  UNL1        0.0294
     12 C         139.8232  142.4906  170.1558 C.ar    1  UNL1        0.1401
     13 F         139.5291  143.3308  171.3631 F       1  UNL1       -0.2042
     14 C         139.6303  141.0041  170.2116 C.ar    1  UNL1        0.0294
     15 C         139.9244  140.1639  169.0041 C.ar    1  UNL1        0.0007
     16 O         139.7057  138.9545  166.0653 O.3     1  UNL1       -0.3498
     17 C         139.2853  138.9247  164.6256 C.3     1  UNL1        0.1187
     18 C         139.8965  137.9276  163.6863 C.3     1  UNL1        0.0456
     19 C         139.4762  137.8979  162.2467 C.3     1  UNL1        0.0599
     20 C         138.7833  138.2201  160.9559 C.3     1  UNL1        0.0174
     21 C         137.8350  139.3542  161.2094 C.3     1  UNL1        0.0174
     22 C         137.9416  139.7330  162.6569 C.3     1  UNL1        0.0599
     23 C         138.2538  139.8920  164.1253 C.3     1  UNL1        0.0456
     24 N         138.9560  138.8329  163.2980 N.3     1  UNL1       -0.2751
     25 C         139.3763  138.8627  164.7376 C.3     1  UNL1        0.0720
     26 C         138.4760  138.2934  165.7937 C.3     1  UNL1        0.0160
     27 C         137.8166  137.1108  166.4391 C.3     1  UNL1        0.0014
     28 C         137.5761  138.4901  166.9776 C.3     1  UNL1        0.0014
@<TRIPOS>BOND
     1     2     3    1
     2     3     4   ar
     3     4     5   ar
     4     5     6   ar
     5     6     1    1
     6     1    16    1
     7    16    17    1
     8    17    18    1
     9    18    19    1
    10    19    20    1
    11    20    21    1
    12    21    22    1
    13    22    23    1
    14    22    24    1
    15    24    25    1
    16    25    26    1
    17    26    27    1
    18    27    28    1
    19     1     9    1
    20     9    10   ar
    21    10    11   ar
    22    11    12   ar
    23    12    13    1
    24    12    14   ar
    25    14    15   ar
    26     6     7   ar
    27     7     8   ar
    28     8     3   ar
    29    23    17    1
    30    28    26    1
    31    15     9   ar
    32    24    19    1
@<TRIPOS>MOLECULE
*****
 28 32 0 0 0
SMALL
GASTEIGER

@<TRIPOS>ATOM
      1 C         140.5390  139.9670  166.6443 C.3     1  UNL1        0.1596
      2 F         139.4681  143.4652  171.3999 F       1  UNL1       -0.2042
      3 C         139.7358  142.5907  170.2110 C.ar    1  UNL1        0.1401
      4 C         139.3417  141.1436  170.2403 C.ar    1  UNL1        0.0294
      5 C         139.6095  140.2691  169.0515 C.ar    1  UNL1        0.0007
      6 C         140.2713  140.8415  167.8331 C.ar    1  UNL1        0.0089
      7 C         140.6655  142.2885  167.8037 C.ar    1  UNL1        0.0007
      8 C         140.3977  143.1630  168.9926 C.ar    1  UNL1        0.0294
      9 C         141.8433  140.0760  165.9115 C.ar    1  UNL1        0.0089
     10 C         142.1266  141.2773  165.0591 C.ar    1  UNL1        0.0007
     11 C         143.4308  141.3863  164.3263 C.ar    1  UNL1        0.0294
     12 C         144.4519  140.2940  164.4459 C.ar    1  UNL1        0.1401
     13 F         145.7561  140.4030  163.7131 F       1  UNL1       -0.2042
     14 C         144.1687  139.0927  165.2983 C.ar    1  UNL1        0.0294
     15 C         142.8643  138.9837  166.0311 C.ar    1  UNL1        0.0007
     16 O         139.5024  138.9833  166.1883 O.3     1  UNL1       -0.3498
     17 C         139.0775  138.9543  164.7499 C.3     1  UNL1        0.1187
     18 C         138.3041  140.1027  164.1730 C.3     1  UNL1        0.0456
     19 C         137.8792  140.0736  162.7348 C.3     1  UNL1        0.0599
     20 C         137.6752  139.6310  161.3162 C.3     1  UNL1        0.0174
     21 C         138.3230  138.2881  161.1520 C.3     1  UNL1        0.0174
     22 C         138.9273  137.9007  162.4691 C.3     1  UNL1        0.0599
     23 C         139.4261  137.7767  163.8886 C.3     1  UNL1        0.0456
     24 N         138.6530  139.0042  163.4473 N.3     1  UNL1       -0.2751
     25 C         139.0779  139.0334  164.8856 C.3     1  UNL1        0.0720
     26 C         138.2791  138.2954  165.9187 C.3     1  UNL1        0.0160
     27 C         137.4040  138.3077  167.1370 C.3     1  UNL1        0.0014
     28 C         137.7706  137.0050  166.4899 C.3     1  UNL1        0.0014
@<TRIPOS>BOND
     1     2     3    1
     2     3     4   ar
     3     4     5   ar
     4     5     6   ar
     5     6     1    1
     6     1    16    1
     7    16    17    1
     8    17    18    1
     9    18    19    1
    10    19    20    1
    11    20    21    1
    12    21    22    1
    13    22    23    1
    14    22    24    1
    15    24    25    1
    16    25    26    1
    17    26    27    1
    18    27    28    1
    19     1     9    1
    20     9    10   ar
    21    10    11   ar
    22    11    12   ar
    23    12    13    1
    24    12    14   ar
    25    14    15   ar
    26     6     7   ar
    27     7     8   ar
    28     8     3   ar
    29    23    17    1
    30    28    26    1
    31    15     9   ar
    32    24    19    1
@<TRIPOS>MOLECULE
*****
 28 32 0 0 0
SMALL
GASTEIGER

@<TRIPOS>ATOM
      1 C         140.5636  142.0563  165.9141 C.3     1  UNL1        0.1596
      2 F         143.0938  143.2444  171.2232 F       1  UNL1       -0.2042
      3 C         142.4612  142.9474  169.8959 C.ar    1  UNL1        0.1401
      4 C         143.2775  142.3356  168.7961 C.ar    1  UNL1        0.0294
      5 C         142.6449  142.0386  167.4689 C.ar    1  UNL1        0.0007
      6 C         141.1961  142.3533  167.2413 C.ar    1  UNL1        0.0089
      7 C         140.3798  142.9651  168.3411 C.ar    1  UNL1        0.0007
      8 C         141.0124  143.2621  169.6683 C.ar    1  UNL1        0.0294
      9 C         140.3048  143.1681  164.9410 C.ar    1  UNL1        0.0089
     10 C         141.4517  143.9539  164.3778 C.ar    1  UNL1        0.0007
     11 C         141.1930  145.0657  163.4046 C.ar    1  UNL1        0.0294
     12 C         139.7874  145.3916  162.9946 C.ar    1  UNL1        0.1401
     13 F         139.5287  146.5034  162.0215 F       1  UNL1       -0.2042
     14 C         138.6405  144.6058  163.5578 C.ar    1  UNL1        0.0294
     15 C         138.8993  143.4940  164.5310 C.ar    1  UNL1        0.0007
     16 O         140.1898  140.6474  165.5600 O.3     1  UNL1       -0.3498
     17 C         140.8700  139.9561  164.4156 C.3     1  UNL1        0.1187
     18 C         142.1642  139.2316  164.6394 C.3     1  UNL1        0.0456
     19 C         142.8443  138.5403  163.4951 C.3     1  UNL1        0.0599
     20 C         143.1507  138.0180  162.1228 C.3     1  UNL1        0.0174
     21 C         142.0489  138.4554  161.2037 C.3     1  UNL1        0.0174
     22 C         141.0616  139.2480  162.0080 C.3     1  UNL1        0.0599
     23 C         140.2558  139.9892  163.0475 C.3     1  UNL1        0.0456
     24 N         141.5532  139.3005  163.4242 N.3     1  UNL1       -0.2751
     25 C         140.8730  139.9918  164.5685 C.3     1  UNL1        0.0720
     26 C         139.5957  139.4381  165.1270 C.3     1  UNL1        0.0160
     27 C         138.8013  138.2775  165.6484 C.3     1  UNL1        0.0014
     28 C         138.1778  139.6397  165.5728 C.3     1  UNL1        0.0014
@<TRIPOS>BOND
     1     2     3    1
     2     3     4   ar
     3     4     5   ar
     4     5     6   ar
     5     6     1    1
     6     1    16    1
     7    16    17    1
     8    17    18    1
     9    18    19    1
    10    19    20    1
    11    20    21    1
    12    21    22    1
    13    22    23    1
    14    22    24    1
    15    24    25    1
    16    25    26    1
    17    26    27    1
    18    27    28    1
    19     1     9    1
    20     9    10   ar
    21    10    11   ar
    22    11    12   ar
    23    12    13    1
    24    12    14   ar
    25    14    15   ar
    26     6     7   ar
    27     7     8   ar
    28     8     3   ar
    29    23    17    1
    30    28    26    1
    31    15     9   ar
    32    24    19    1
@<TRIPOS>MOLECULE
*****
 28 32 0 0 0
SMALL
GASTEIGER

@<TRIPOS>ATOM
      1 C         141.5207  140.0199  166.1718 C.3     1  UNL1        0.1596
      2 F         146.6028  141.6892  163.4543 F       1  UNL1       -0.2042
      3 C         145.3323  141.2719  164.1337 C.ar    1  UNL1        0.1401
      4 C         144.9802  139.8175  164.2380 C.ar    1  UNL1        0.0294
      5 C         143.7097  139.4002  164.9174 C.ar    1  UNL1        0.0007
      6 C         142.7911  140.4373  165.4925 C.ar    1  UNL1        0.0089
      7 C         143.1431  141.8916  165.3882 C.ar    1  UNL1        0.0007
      8 C         144.4136  142.3089  164.7088 C.ar    1  UNL1        0.0294
      9 C         141.3829  140.1638  167.6585 C.ar    1  UNL1        0.0089
     10 C         142.4820  139.6905  168.5630 C.ar    1  UNL1        0.0007
     11 C         142.3442  139.8344  170.0497 C.ar    1  UNL1        0.0294
     12 C         141.1073  140.4517  170.6320 C.ar    1  UNL1        0.1401
     13 F         140.9695  140.5956  172.1187 F       1  UNL1       -0.2042
     14 C         140.0082  140.9250  169.7276 C.ar    1  UNL1        0.0294
     15 C         140.1460  140.7810  168.2408 C.ar    1  UNL1        0.0007
     16 O         140.3879  139.4586  165.3645 O.3     1  UNL1       -0.3498
     17 C         139.6430  140.3383  164.4046 C.3     1  UNL1        0.1187
     18 C         139.8944  140.2216  162.9304 C.3     1  UNL1        0.0456
     19 C         139.1495  141.1013  161.9706 C.3     1  UNL1        0.0599
     20 C         138.2184  142.1365  161.4125 C.3     1  UNL1        0.0174
     21 C         137.4981  142.7792  162.5606 C.3     1  UNL1        0.0174
     22 C         137.9840  142.1412  163.8282 C.3     1  UNL1        0.0599
     23 C         138.6467  141.3348  164.9189 C.3     1  UNL1        0.0456
     24 N         139.0046  141.1041  163.4636 N.3     1  UNL1       -0.2751
     25 C         139.7495  140.2245  164.4234 C.3     1  UNL1        0.0720
     26 C         139.0512  139.0704  165.0797 C.3     1  UNL1        0.0160
     27 C         138.7637  137.6003  165.1579 C.3     1  UNL1        0.0014
     28 C         138.1294  138.5418  166.1384 C.3     1  UNL1        0.0014
@<TRIPOS>BOND
     1     2     3    1
     2     3     4   ar
     3     4     5   ar
     4     5     6   ar
     5     6     1    1
     6     1    16    1
     7    16    17    1
     8    17    18    1
     9    18    19    1
    10    19    20    1
    11    20    21    1
    12    21    22    1
    13    22    23    1
    14    22    24    1
    15    24    25    1
    16    25    26    1
    17    26    27    1
    18    27    28    1
    19     1     9    1
    20     9    10   ar
    21    10    11   ar
    22    11    12   ar
    23    12    13    1
    24    12    14   ar
    25    14    15   ar
    26     6     7   ar
    27     7     8   ar
    28     8     3   ar
    29    23    17    1
    30    28    26    1
    31    15     9   ar
    32    24    19    1
@<TRIPOS>MOLECULE
*****
 28 32 0 0 0
SMALL
GASTEIGER

@<TRIPOS>ATOM
      1 C         141.5204  140.0537  166.2105 C.3     1  UNL1        0.1596
      2 F         140.9871  140.6905  172.1528 F       1  UNL1       -0.2042
      3 C         141.1205  140.5313  170.6672 C.ar    1  UNL1        0.1401
      4 C         139.9880  140.9257  169.7660 C.ar    1  UNL1        0.0294
      5 C         140.1214  140.7665  168.2804 C.ar    1  UNL1        0.0007
      6 C         141.3871  140.2129  167.6960 C.ar    1  UNL1        0.0089
      7 C         142.5195  139.8185  168.5972 C.ar    1  UNL1        0.0007
      8 C         142.3861  139.9777  170.0827 C.ar    1  UNL1        0.0294
      9 C         142.7862  140.4706  165.5221 C.ar    1  UNL1        0.0089
     10 C         143.1457  141.9239  165.4289 C.ar    1  UNL1        0.0007
     11 C         144.4115  142.3407  164.7405 C.ar    1  UNL1        0.0294
     12 C         145.3179  141.3042  164.1452 C.ar    1  UNL1        0.1401
     13 F         146.5837  141.7210  163.4568 F       1  UNL1       -0.2042
     14 C         144.9584  139.8509  164.2384 C.ar    1  UNL1        0.0294
     15 C         143.6925  139.4341  164.9269 C.ar    1  UNL1        0.0007
     16 O         140.3877  139.4777  165.4134 O.3     1  UNL1       -0.3498
     17 C         139.6488  140.3373  164.4309 C.3     1  UNL1        0.1187
     18 C         139.9312  140.2112  162.9631 C.3     1  UNL1        0.0456
     19 C         139.1923  141.0707  161.9807 C.3     1  UNL1        0.0599
     20 C         138.2570  142.0865  161.3947 C.3     1  UNL1        0.0174
     21 C         137.5043  142.7284  162.5223 C.3     1  UNL1        0.0174
     22 C         137.9745  142.1093  163.8052 C.3     1  UNL1        0.0599
     23 C         138.6275  141.3229  164.9162 C.3     1  UNL1        0.0456
     24 N         139.0177  141.0848  163.4704 N.3     1  UNL1       -0.2751
     25 C         139.7566  140.2252  164.4529 C.3     1  UNL1        0.0720
     26 C         139.0613  139.0702  165.1104 C.3     1  UNL1        0.0160
     27 C         138.1394  138.5406  166.1685 C.3     1  UNL1        0.0014
     28 C         138.7788  137.5992  165.1913 C.3     1  UNL1        0.0014
@<TRIPOS>BOND
     1     2     3    1
     2     3     4   ar
     3     4     5   ar
     4     5     6   ar
     5     6     1    1
     6     1    16    1
     7    16    17    1
     8    17    18    1
     9    18    19    1
    10    19    20    1
    11    20    21    1
    12    21    22    1
    13    22    23    1
    14    22    24    1
    15    24    25    1
    16    25    26    1
    17    26    27    1
    18    27    28    1
    19     1     9    1
    20     9    10   ar
    21    10    11   ar
    22    11    12   ar
    23    12    13    1
    24    12    14   ar
    25    14    15   ar
    26     6     7   ar
    27     7     8   ar
    28     8     3   ar
    29    23    17    1
    30    28    26    1
    31    15     9   ar
    32    24    19    1
@<TRIPOS>MOLECULE
*****
 28 32 0 0 0
SMALL
GASTEIGER

@<TRIPOS>ATOM
      1 C         140.3269  141.7971  166.2413 C.3     1  UNL1        0.1596
      2 F         137.7776  136.3751  165.9195 F       1  UNL1       -0.2042
      3 C         138.4149  137.7306  166.0000 C.ar    1  UNL1        0.1401
      4 C         139.4639  138.1266  165.0035 C.ar    1  UNL1        0.0294
      5 C         140.1012  139.4821  165.0840 C.ar    1  UNL1        0.0007
      6 C         139.6896  140.4416  166.1609 C.ar    1  UNL1        0.0089
      7 C         138.6406  140.0457  167.1574 C.ar    1  UNL1        0.0007
      8 C         138.0033  138.6903  167.0769 C.ar    1  UNL1        0.0294
      9 C         141.0684  142.2049  167.4798 C.ar    1  UNL1        0.0089
     10 C         140.3744  143.0093  168.5388 C.ar    1  UNL1        0.0007
     11 C         141.1159  143.4172  169.7773 C.ar    1  UNL1        0.0294
     12 C         142.5514  143.0207  169.9568 C.ar    1  UNL1        0.1401
     13 F         143.2929  143.4286  171.1952 F       1  UNL1       -0.2042
     14 C         143.2454  142.2164  168.8978 C.ar    1  UNL1        0.0294
     15 C         142.5038  141.8085  167.6593 C.ar    1  UNL1        0.0007
     16 O         140.2227  142.7447  165.0832 O.3     1  UNL1       -0.3498
     17 C         141.3793  142.9090  164.1422 C.3     1  UNL1        0.1187
     18 C         141.4377  142.1040  162.8778 C.3     1  UNL1        0.0456
     19 C         142.5942  142.2683  161.9369 C.3     1  UNL1        0.0599
     20 C         143.8796  142.7411  161.3252 C.3     1  UNL1        0.0174
     21 C         144.4799  143.7655  162.2419 C.3     1  UNL1        0.0174
     22 C         143.5655  143.9258  163.4201 C.3     1  UNL1        0.0599
     23 C         142.4774  143.8783  164.4656 C.3     1  UNL1        0.0456
     24 N         142.4001  143.0005  163.2316 N.3     1  UNL1       -0.2751
     25 C         141.2435  142.8361  164.1725 C.3     1  UNL1        0.0720
     26 C         140.1711  143.8832  164.2330 C.3     1  UNL1        0.0160
     27 C         139.1588  144.6619  165.0195 C.3     1  UNL1        0.0014
     28 C         139.3262  144.9181  163.5511 C.3     1  UNL1        0.0014
@<TRIPOS>BOND
     1     2     3    1
     2     3     4   ar
     3     4     5   ar
     4     5     6   ar
     5     6     1    1
     6     1    16    1
     7    16    17    1
     8    17    18    1
     9    18    19    1
    10    19    20    1
    11    20    21    1
    12    21    22    1
    13    22    23    1
    14    22    24    1
    15    24    25    1
    16    25    26    1
    17    26    27    1
    18    27    28    1
    19     1     9    1
    20     9    10   ar
    21    10    11   ar
    22    11    12   ar
    23    12    13    1
    24    12    14   ar
    25    14    15   ar
    26     6     7   ar
    27     7     8   ar
    28     8     3   ar
    29    23    17    1
    30    28    26    1
    31    15     9   ar
    32    24    19    1
@<TRIPOS>MOLECULE
*****
 28 32 0 0 0
SMALL
GASTEIGER

@<TRIPOS>ATOM
      1 C         140.2096  141.7140  166.2352 C.3     1  UNL1        0.1596
      2 F         143.2695  143.4033  171.1120 F       1  UNL1       -0.2042
      3 C         142.5045  142.9810  169.8929 C.ar    1  UNL1        0.1401
      4 C         143.1783  142.1644  168.8301 C.ar    1  UNL1        0.0294
      5 C         142.4133  141.7421  167.6109 C.ar    1  UNL1        0.0007
      6 C         140.9745  142.1363  167.4544 C.ar    1  UNL1        0.0089
      7 C         140.3007  142.9529  168.5171 C.ar    1  UNL1        0.0007
      8 C         141.0657  143.3751  169.7362 C.ar    1  UNL1        0.0294
      9 C         139.5747  140.3562  166.1812 C.ar    1  UNL1        0.0089
     10 C         138.5378  139.9721  167.1949 C.ar    1  UNL1        0.0007
     11 C         137.9028  138.6143  167.1409 C.ar    1  UNL1        0.0294
     12 C         138.3047  137.6403  166.0732 C.ar    1  UNL1        0.1401
     13 F         137.6697  136.2825  166.0192 F       1  UNL1       -0.2042
     14 C         139.3415  138.0243  165.0595 C.ar    1  UNL1        0.0294
     15 C         139.9765  139.3823  165.1136 C.ar    1  UNL1        0.0007
     16 O         140.0797  142.6497  165.0700 O.3     1  UNL1       -0.3498
     17 C         141.2489  142.8796  164.1587 C.3     1  UNL1        0.1187
     18 C         141.4109  142.0467  162.9218 C.3     1  UNL1        0.0456
     19 C         142.5801  142.2767  162.0107 C.3     1  UNL1        0.0599
     20 C         143.8427  142.8336  161.4229 C.3     1  UNL1        0.0174
     21 C         144.3306  143.9281  162.3251 C.3     1  UNL1        0.0174
     22 C         143.3694  144.0477  163.4705 C.3     1  UNL1        0.0599
     23 C         142.2560  143.9425  164.4845 C.3     1  UNL1        0.0456
     24 N         142.2875  143.0270  163.2762 N.3     1  UNL1       -0.2751
     25 C         141.1184  142.7970  164.1873 C.3     1  UNL1        0.0720
     26 C         139.9828  143.7767  164.2122 C.3     1  UNL1        0.0160
     27 C         138.8360  144.4539  163.5219 C.3     1  UNL1        0.0014
     28 C         139.1625  144.7963  164.9454 C.3     1  UNL1        0.0014
@<TRIPOS>BOND
     1     2     3    1
     2     3     4   ar
     3     4     5   ar
     4     5     6   ar
     5     6     1    1
     6     1    16    1
     7    16    17    1
     8    17    18    1
     9    18    19    1
    10    19    20    1
    11    20    21    1
    12    21    22    1
    13    22    23    1
    14    22    24    1
    15    24    25    1
    16    25    26    1
    17    26    27    1
    18    27    28    1
    19     1     9    1
    20     9    10   ar
    21    10    11   ar
    22    11    12   ar
    23    12    13    1
    24    12    14   ar
    25    14    15   ar
    26     6     7   ar
    27     7     8   ar
    28     8     3   ar
    29    23    17    1
    30    28    26    1
    31    15     9   ar
    32    24    19    1
