@<TRIPOS>MOLECULE
*****
 42 46 0 0 0
SMALL
GASTEIGER

@<TRIPOS>ATOM
      1 C         142.8997  136.4605  157.7224 C.ar    1  UNL1        0.1534
      2 N         142.6564  136.3803  159.2004 N.ar    1  UNL1       -0.2279
      3 C         142.5945  137.7798  159.7366 C.ar    1  UNL1        0.1036
      4 C         142.7997  138.7250  158.5901 C.ar    1  UNL1        0.1142
      5 C         142.8391  140.2228  158.5187 C.ar    1  UNL1        0.1432
      6 N         142.6505  141.0382  159.7635 N.pl3   1  UNL1       -0.3414
      7 N         143.0672  140.9052  157.2026 N.ar    1  UNL1       -0.2265
      8 C         143.2558  140.0898  155.9578 C.ar    1  UNL1        0.1193
      9 C         143.2163  138.5920  156.0291 C.ar    1  UNL1        0.1021
     10 N         142.9883  137.9096  157.3453 N.ar    1  UNL1       -0.2865
     11 H         142.5009  140.5903  160.6274 H       1  UNL1        0.1438
     12 H         142.6764  142.0212  159.7167 H       1  UNL1        0.1438
     13 C         144.9156  130.5735  155.7152 C.3     1  UNL1        0.0948
     14 C         144.7839  131.7380  156.6516 C.2     1  UNL1        0.2263
     15 O         145.4626  131.7056  157.9887 O.2     1  UNL1       -0.2749
     16 N         143.9734  132.9348  156.2506 N.am    1  UNL1       -0.2740
     17 C         143.2947  132.9673  154.9134 C.3     1  UNL1        0.1255
     18 C         142.4843  134.1641  154.5125 C.3     1  UNL1        0.1641
     19 O         142.3526  135.3285  155.4488 O.3     1  UNL1       -0.3451
     20 C         143.0314  135.2961  156.7861 C.3     1  UNL1        0.1913
     21 C         143.8418  134.0993  157.1870 C.3     1  UNL1        0.1307
     22 C         142.3674  138.1663  161.1681 C.ar    1  UNL1        0.0467
     23 C         143.5379  138.4322  162.0679 C.ar    1  UNL1        0.0039
     24 C         143.3108  138.8187  163.4994 C.ar    1  UNL1        0.0047
     25 C         141.9133  138.9392  164.0310 C.ar    1  UNL1        0.0559
     26 C         140.7430  138.6733  163.1312 C.ar    1  UNL1        0.0342
     27 C         140.9701  138.2869  161.6998 C.ar    1  UNL1        0.1417
     28 F         139.7997  138.0210  160.8000 F       1  UNL1       -0.2041
     29 C         141.6863  139.3257  165.4625 C.2     1  UNL1        0.2506
     30 O         140.3304  139.1522  166.0802 O.2     1  UNL1       -0.2698
     31 N         142.8151  139.8857  166.2762 N.am    1  UNL1       -0.2658
     32 H         143.7049  139.9996  165.8708 H       1  UNL1        0.1566
     33 C         142.5880  140.2722  167.7077 C.ar    1  UNL1        0.1343
     34 C         142.0422  141.6290  168.0408 C.ar    1  UNL1        0.0383
     35 C         141.8152  142.0154  169.4723 C.ar    1  UNL1        0.0757
     36 C         142.1341  141.0450  170.5707 C.ar    1  UNL1        0.0246
     37 C         142.6800  139.6882  170.2376 C.ar    1  UNL1        0.1003
     38 N         142.9070  139.3018  168.8061 N.ar    1  UNL1       -0.2290
     39 C         141.2693  143.3723  169.8053 C.3     1  UNL1        0.4187
     40 F         140.7234  144.7292  170.1383 F       1  UNL1       -0.1659
     41 F         139.9548  142.9947  169.1893 F       1  UNL1       -0.1659
     42 F         142.5838  143.7500  170.4213 F       1  UNL1       -0.1659
@<TRIPOS>BOND
     1    13    14    1
     2    14    15    2
     3    14    16   am
     4    16    17    1
     5    17    18    1
     6    18    19    1
     7    19    20    1
     8    20     1    1
     9     1     2   ar
    10     2     3   ar
    11     3    22    1
    12    22    23   ar
    13    23    24   ar
    14    24    25   ar
    15    25    29    1
    16    29    30    2
    17    29    31   am
    18    31    33    1
    19    33    34   ar
    20    34    35   ar
    21    35    39    1
    22    39    40    1
    23    39    41    1
    24    39    42    1
    25    35    36   ar
    26    36    37   ar
    27    37    38   ar
    28    25    26   ar
    29    26    27   ar
    30    27    28    1
    31     3     4   ar
    32     4     5   ar
    33     5     6    1
    34     5     7   ar
    35     7     8   ar
    36     8     9   ar
    37     9    10   ar
    38    20    21    1
    39    21    16    1
    40    10     1   ar
    41    27    22   ar
    42    10     4   ar
    43    38    33   ar
    44    31    32    1
    45     6    11    1
    46     6    12    1
@<TRIPOS>MOLECULE
*****
 42 46 0 0 0
SMALL
GASTEIGER

@<TRIPOS>ATOM
      1 C         142.7728  137.7444  157.2199 C.ar    1  UNL1        0.1534
      2 N         142.2994  137.6152  158.6374 N.ar    1  UNL1       -0.2279
      3 C         142.7337  138.8412  159.3846 C.ar    1  UNL1        0.1036
      4 C         143.4755  139.7281  158.4290 C.ar    1  UNL1        0.1142
      5 C         144.1321  141.0653  158.6043 C.ar    1  UNL1        0.1432
      6 N         144.1080  141.7432  159.9421 N.pl3   1  UNL1       -0.3414
      7 N         144.8128  141.7248  157.4416 N.ar    1  UNL1       -0.2265
      8 C         144.8369  141.0469  156.1037 C.ar    1  UNL1        0.1193
      9 C         144.1803  139.7097  155.9285 C.ar    1  UNL1        0.1021
     10 N         143.4996  139.0502  157.0911 N.ar    1  UNL1       -0.2865
     11 H         143.6612  141.3104  160.7053 H       1  UNL1        0.1438
     12 H         144.5389  142.6209  160.0571 H       1  UNL1        0.1438
     13 C         142.1574  131.8069  154.5521 C.3     1  UNL1        0.0948
     14 C         142.3730  132.8079  155.6483 C.2     1  UNL1        0.2263
     15 O         142.6043  132.3413  157.0550 O.2     1  UNL1       -0.2749
     16 N         142.3573  134.2753  155.3378 N.am    1  UNL1       -0.2740
     17 C         142.1260  134.7419  153.9312 C.3     1  UNL1        0.1255
     18 C         142.1103  136.2093  153.6207 C.3     1  UNL1        0.1641
     19 O         142.3259  137.2102  154.7169 O.3     1  UNL1       -0.3451
     20 C         142.5572  136.7436  156.1236 C.3     1  UNL1        0.1913
     21 C         142.5729  135.2762  156.4341 C.3     1  UNL1        0.1307
     22 C         142.4722  139.1296  160.8332 C.ar    1  UNL1        0.0467
     23 C         141.3653  140.0635  161.2241 C.ar    1  UNL1        0.0039
     24 C         141.1038  140.3519  162.6727 C.ar    1  UNL1        0.0047
     25 C         141.9490  139.7064  163.7304 C.ar    1  UNL1        0.0559
     26 C         143.0558  138.7725  163.3396 C.ar    1  UNL1        0.0342
     27 C         143.3174  138.4841  161.8910 C.ar    1  UNL1        0.1417
     28 F         144.4243  137.5501  161.5002 F       1  UNL1       -0.2041
     29 C         141.6874  139.9948  165.1790 C.2     1  UNL1        0.2506
     30 O         140.2882  139.9314  165.7156 O.2     1  UNL1       -0.2698
     31 N         142.8252  140.3466  166.0909 N.am    1  UNL1       -0.2658
     32 H         143.7436  140.3882  165.7387 H       1  UNL1        0.1566
     33 C         142.5638  140.6350  167.5396 C.ar    1  UNL1        0.1343
     34 C         141.9899  141.9590  167.9491 C.ar    1  UNL1        0.0383
     35 C         141.7284  142.2473  169.3977 C.ar    1  UNL1        0.0757
     36 C         142.0409  141.2116  170.4369 C.ar    1  UNL1        0.0246
     37 C         142.6148  139.8877  170.0273 C.ar    1  UNL1        0.1003
     38 N         142.8762  139.5994  168.5787 N.ar    1  UNL1       -0.2290
     39 C         141.1545  143.5713  169.8072 C.3     1  UNL1        0.4187
     40 F         140.5806  144.8954  170.2167 F       1  UNL1       -0.1659
     41 F         139.8849  143.2467  169.0774 F       1  UNL1       -0.1659
     42 F         142.4242  143.8959  170.5370 F       1  UNL1       -0.1659
@<TRIPOS>BOND
     1    13    14    1
     2    14    15    2
     3    14    16   am
     4    16    17    1
     5    17    18    1
     6    18    19    1
     7    19    20    1
     8    20     1    1
     9     1     2   ar
    10     2     3   ar
    11     3    22    1
    12    22    23   ar
    13    23    24   ar
    14    24    25   ar
    15    25    29    1
    16    29    30    2
    17    29    31   am
    18    31    33    1
    19    33    34   ar
    20    34    35   ar
    21    35    39    1
    22    39    40    1
    23    39    41    1
    24    39    42    1
    25    35    36   ar
    26    36    37   ar
    27    37    38   ar
    28    25    26   ar
    29    26    27   ar
    30    27    28    1
    31     3     4   ar
    32     4     5   ar
    33     5     6    1
    34     5     7   ar
    35     7     8   ar
    36     8     9   ar
    37     9    10   ar
    38    20    21    1
    39    21    16    1
    40    10     1   ar
    41    27    22   ar
    42    10     4   ar
    43    38    33   ar
    44    31    32    1
    45     6    11    1
    46     6    12    1
@<TRIPOS>MOLECULE
*****
 42 46 0 0 0
SMALL
GASTEIGER

@<TRIPOS>ATOM
      1 C         140.6551  141.6889  164.6726 C.ar    1  UNL1        0.1534
      2 N         141.7338  141.2650  163.7203 N.ar    1  UNL1       -0.2279
      3 C         141.4846  141.9436  162.4060 C.ar    1  UNL1        0.1036
      4 C         140.2520  142.7869  162.5460 C.ar    1  UNL1        0.1142
      5 C         139.5301  143.6777  161.5788 C.ar    1  UNL1        0.1432
      6 N         140.0428  143.8352  160.1780 N.pl3   1  UNL1       -0.3414
      7 N         138.2957  144.4111  162.0125 N.ar    1  UNL1       -0.2265
      8 C         137.7830  144.2537  163.4134 C.ar    1  UNL1        0.1193
      9 C         138.5049  143.3628  164.3805 C.ar    1  UNL1        0.1021
     10 N         139.7394  142.6294  163.9468 N.ar    1  UNL1       -0.2865
     11 H         140.8530  143.3538  159.8933 H       1  UNL1        0.1438
     12 H         139.5690  144.4198  159.5432 H       1  UNL1        0.1438
     13 C         142.1188  141.4299  171.0398 C.3     1  UNL1        0.0948
     14 C         142.2573  141.8693  169.6122 C.2     1  UNL1        0.2263
     15 O         143.3354  142.8384  169.2272 O.2     1  UNL1       -0.2749
     16 N         141.3176  141.3396  168.5699 N.am    1  UNL1       -0.2740
     17 C         140.2395  140.3705  168.9550 C.3     1  UNL1        0.1255
     18 C         139.2999  139.8408  167.9126 C.3     1  UNL1        0.1641
     19 O         139.4384  140.2803  166.4852 O.3     1  UNL1       -0.3451
     20 C         140.5166  141.2494  166.1001 C.3     1  UNL1        0.1913
     21 C         141.4562  141.7791  167.1425 C.3     1  UNL1        0.1307
     22 C         142.3212  141.8035  161.1689 C.ar    1  UNL1        0.0467
     23 C         142.0130  140.7247  160.1732 C.ar    1  UNL1        0.0039
     24 C         142.8496  140.5846  158.9361 C.ar    1  UNL1        0.0047
     25 C         143.9944  141.5233  158.6946 C.ar    1  UNL1        0.0559
     26 C         144.3026  142.6020  159.6903 C.ar    1  UNL1        0.0342
     27 C         143.4660  142.7421  160.9274 C.ar    1  UNL1        0.1417
     28 F         143.7743  143.8209  161.9230 F       1  UNL1       -0.2041
     29 C         144.8311  141.3832  157.4575 C.2     1  UNL1        0.2506
     30 O         144.9932  140.0399  156.8099 O.2     1  UNL1       -0.2698
     31 N         145.5055  142.5863  156.8681 N.am    1  UNL1       -0.2658
     32 H         145.3990  143.4679  157.2932 H       1  UNL1        0.1566
     33 C         146.3421  142.4463  155.6309 C.ar    1  UNL1        0.1343
     34 C         147.8219  142.2299  155.7467 C.ar    1  UNL1        0.0383
     35 C         148.6585  142.0899  154.5095 C.ar    1  UNL1        0.0757
     36 C         148.0153  142.1664  153.1566 C.ar    1  UNL1        0.0246
     37 C         146.5355  142.3828  153.0408 C.ar    1  UNL1        0.1003
     38 N         145.6989  142.5228  154.2780 N.ar    1  UNL1       -0.2290
     39 C         150.1382  141.8734  154.6254 C.3     1  UNL1        0.4187
     40 F         151.6180  141.6569  154.7412 F       1  UNL1       -0.1659
     41 F         150.0378  141.9850  156.1178 F       1  UNL1       -0.1659
     42 F         150.2387  141.7618  153.1329 F       1  UNL1       -0.1659
@<TRIPOS>BOND
     1    13    14    1
     2    14    15    2
     3    14    16   am
     4    16    17    1
     5    17    18    1
     6    18    19    1
     7    19    20    1
     8    20     1    1
     9     1     2   ar
    10     2     3   ar
    11     3    22    1
    12    22    23   ar
    13    23    24   ar
    14    24    25   ar
    15    25    29    1
    16    29    30    2
    17    29    31   am
    18    31    33    1
    19    33    34   ar
    20    34    35   ar
    21    35    39    1
    22    39    40    1
    23    39    41    1
    24    39    42    1
    25    35    36   ar
    26    36    37   ar
    27    37    38   ar
    28    25    26   ar
    29    26    27   ar
    30    27    28    1
    31     3     4   ar
    32     4     5   ar
    33     5     6    1
    34     5     7   ar
    35     7     8   ar
    36     8     9   ar
    37     9    10   ar
    38    20    21    1
    39    21    16    1
    40    10     1   ar
    41    27    22   ar
    42    10     4   ar
    43    38    33   ar
    44    31    32    1
    45     6    11    1
    46     6    12    1
@<TRIPOS>MOLECULE
*****
 42 46 0 0 0
SMALL
GASTEIGER

@<TRIPOS>ATOM
      1 C         139.4657  144.5463  157.1425 C.ar    1  UNL1        0.1534
      2 N         139.9708  144.5696  158.5547 N.ar    1  UNL1       -0.2279
      3 C         139.5188  143.3085  159.2295 C.ar    1  UNL1        0.1036
      4 C         138.7343  142.5058  158.2344 C.ar    1  UNL1        0.1142
      5 C         138.0456  141.1771  158.3361 C.ar    1  UNL1        0.1432
      6 N         138.0784  140.4121  159.6260 N.pl3   1  UNL1       -0.3414
      7 N         137.3241  140.6134  157.1480 N.ar    1  UNL1       -0.2265
      8 C         137.2913  141.3784  155.8582 C.ar    1  UNL1        0.1193
      9 C         137.9800  142.7071  155.7564 C.ar    1  UNL1        0.1021
     10 N         138.7015  143.2708  156.9446 N.ar    1  UNL1       -0.2865
     11 H         138.5519  140.7821  160.4058 H       1  UNL1        0.1438
     12 H         137.6264  139.5401  159.6928 H       1  UNL1        0.1438
     13 C         139.1333  150.5305  154.5293 C.3     1  UNL1        0.0948
     14 C         138.9129  149.4653  155.5623 C.2     1  UNL1        0.2263
     15 O         138.1959  149.7945  156.8379 O.2     1  UNL1       -0.2749
     16 N         139.4097  148.0709  155.3194 N.am    1  UNL1       -0.2740
     17 C         140.1267  147.7416  154.0438 C.3     1  UNL1        0.1255
     18 C         140.6234  146.3473  153.8010 C.3     1  UNL1        0.1641
     19 O         140.4031  145.2821  154.8338 O.3     1  UNL1       -0.3451
     20 C         139.6860  145.6114  156.1096 C.3     1  UNL1        0.1913
     21 C         139.1893  147.0058  156.3523 C.3     1  UNL1        0.1307
     22 C         139.8016  142.9187  160.6501 C.ar    1  UNL1        0.0467
     23 C         138.8831  143.3672  161.7480 C.ar    1  UNL1        0.0039
     24 C         139.1659  142.9773  163.1686 C.ar    1  UNL1        0.0047
     25 C         140.3671  142.1390  163.4913 C.ar    1  UNL1        0.0559
     26 C         141.2856  141.6905  162.3935 C.ar    1  UNL1        0.0342
     27 C         141.0027  142.0804  160.9729 C.ar    1  UNL1        0.1417
     28 F         141.9213  141.6318  159.8750 F       1  UNL1       -0.2041
     29 C         140.6499  141.7491  164.9119 C.2     1  UNL1        0.2506
     30 O         139.5159  141.4655  165.8518 O.2     1  UNL1       -0.2698
     31 N         142.0668  141.6429  165.3925 N.am    1  UNL1       -0.2658
     32 H         142.8112  141.8291  164.7756 H       1  UNL1        0.1566
     33 C         142.3498  141.2531  166.8131 C.ar    1  UNL1        0.1343
     34 C         142.7173  142.3024  167.8199 C.ar    1  UNL1        0.0383
     35 C         143.0002  141.9125  169.2405 C.ar    1  UNL1        0.0757
     36 C         142.9155  140.4732  169.6542 C.ar    1  UNL1        0.0246
     37 C         142.5480  139.4238  168.6473 C.ar    1  UNL1        0.1003
     38 N         142.2651  139.8137  167.2268 N.ar    1  UNL1       -0.2290
     39 C         143.3676  142.9619  170.2472 C.3     1  UNL1        0.4187
     40 F         143.7352  144.0114  171.2540 F       1  UNL1       -0.1659
     41 F         141.9268  143.3653  170.3529 F       1  UNL1       -0.1659
     42 F         144.8086  142.5586  170.1416 F       1  UNL1       -0.1659
@<TRIPOS>BOND
     1    13    14    1
     2    14    15    2
     3    14    16   am
     4    16    17    1
     5    17    18    1
     6    18    19    1
     7    19    20    1
     8    20     1    1
     9     1     2   ar
    10     2     3   ar
    11     3    22    1
    12    22    23   ar
    13    23    24   ar
    14    24    25   ar
    15    25    29    1
    16    29    30    2
    17    29    31   am
    18    31    33    1
    19    33    34   ar
    20    34    35   ar
    21    35    39    1
    22    39    40    1
    23    39    41    1
    24    39    42    1
    25    35    36   ar
    26    36    37   ar
    27    37    38   ar
    28    25    26   ar
    29    26    27   ar
    30    27    28    1
    31     3     4   ar
    32     4     5   ar
    33     5     6    1
    34     5     7   ar
    35     7     8   ar
    36     8     9   ar
    37     9    10   ar
    38    20    21    1
    39    21    16    1
    40    10     1   ar
    41    27    22   ar
    42    10     4   ar
    43    38    33   ar
    44    31    32    1
    45     6    11    1
    46     6    12    1
@<TRIPOS>MOLECULE
*****
 42 46 0 0 0
SMALL
GASTEIGER

@<TRIPOS>ATOM
      1 C         141.0397  141.8066  164.6861 C.ar    1  UNL1        0.1534
      2 N         142.2065  141.7046  163.7491 N.ar    1  UNL1       -0.2279
      3 C         141.6747  141.6897  162.3466 C.ar    1  UNL1        0.1036
      4 C         140.1793  141.7825  162.4168 C.ar    1  UNL1        0.1142
      5 C         139.1242  141.8105  161.3510 C.ar    1  UNL1        0.1432
      6 N         139.5166  141.7383  159.9050 N.pl3   1  UNL1       -0.3414
      7 N         137.6766  141.9108  161.7310 N.ar    1  UNL1       -0.2265
      8 C         137.2841  141.9830  163.1770 C.ar    1  UNL1        0.1193
      9 C         138.3392  141.9550  164.2428 C.ar    1  UNL1        0.1021
     10 N         139.7868  141.8547  163.8628 N.ar    1  UNL1       -0.2865
     11 H         140.4667  141.6725  159.6555 H       1  UNL1        0.1438
     12 H         138.8241  141.7567  159.2055 H       1  UNL1        0.1438
     13 C         142.7041  139.7833  170.6766 C.3     1  UNL1        0.0948
     14 C         142.6309  139.7375  169.1790 C.2     1  UNL1        0.2263
     15 O         143.2801  138.6114  168.4305 O.2     1  UNL1       -0.2749
     16 N         141.9084  140.8179  168.4301 N.am    1  UNL1       -0.2740
     17 C         141.2592  141.9440  169.1786 C.3     1  UNL1        0.1255
     18 C         140.5368  143.0243  168.4296 C.3     1  UNL1        0.1641
     19 O         140.4636  142.9786  166.9322 O.3     1  UNL1       -0.3451
     20 C         141.1128  141.8524  166.1837 C.3     1  UNL1        0.1913
     21 C         141.8353  140.7721  166.9326 C.3     1  UNL1        0.1307
     22 C         142.4945  141.5981  161.0938 C.ar    1  UNL1        0.0467
     23 C         142.8842  140.2560  160.5489 C.ar    1  UNL1        0.0039
     24 C         143.7041  140.1644  159.2961 C.ar    1  UNL1        0.0047
     25 C         144.1342  141.4149  158.5881 C.ar    1  UNL1        0.0559
     26 C         143.7445  142.7570  159.1330 C.ar    1  UNL1        0.0342
     27 C         142.9247  142.8486  160.3858 C.ar    1  UNL1        0.1417
     28 F         142.5351  144.1908  160.9306 F       1  UNL1       -0.2041
     29 C         144.9540  141.3233  157.3353 C.2     1  UNL1        0.2506
     30 O         145.0058  140.0371  156.5653 O.2     1  UNL1       -0.2698
     31 N         145.7220  142.5179  156.8527 N.am    1  UNL1       -0.2658
     32 H         145.6880  143.3620  157.3582 H       1  UNL1        0.1566
     33 C         146.5419  142.4264  155.5999 C.ar    1  UNL1        0.1343
     34 C         148.0188  142.1789  155.6864 C.ar    1  UNL1        0.0383
     35 C         148.8386  142.0874  154.4335 C.ar    1  UNL1        0.0757
     36 C         148.1814  142.2434  153.0942 C.ar    1  UNL1        0.0246
     37 C         146.7045  142.4909  153.0077 C.ar    1  UNL1        0.1003
     38 N         145.8848  142.5824  154.2605 N.ar    1  UNL1       -0.2290
     39 C         150.3154  141.8400  154.5201 C.3     1  UNL1        0.4187
     40 F         151.7924  141.5925  154.6068 F       1  UNL1       -0.1659
     41 F         150.3689  141.6389  153.0346 F       1  UNL1       -0.1659
     42 F         150.2621  142.0411  156.0057 F       1  UNL1       -0.1659
@<TRIPOS>BOND
     1    13    14    1
     2    14    15    2
     3    14    16   am
     4    16    17    1
     5    17    18    1
     6    18    19    1
     7    19    20    1
     8    20     1    1
     9     1     2   ar
    10     2     3   ar
    11     3    22    1
    12    22    23   ar
    13    23    24   ar
    14    24    25   ar
    15    25    29    1
    16    29    30    2
    17    29    31   am
    18    31    33    1
    19    33    34   ar
    20    34    35   ar
    21    35    39    1
    22    39    40    1
    23    39    41    1
    24    39    42    1
    25    35    36   ar
    26    36    37   ar
    27    37    38   ar
    28    25    26   ar
    29    26    27   ar
    30    27    28    1
    31     3     4   ar
    32     4     5   ar
    33     5     6    1
    34     5     7   ar
    35     7     8   ar
    36     8     9   ar
    37     9    10   ar
    38    20    21    1
    39    21    16    1
    40    10     1   ar
    41    27    22   ar
    42    10     4   ar
    43    38    33   ar
    44    31    32    1
    45     6    11    1
    46     6    12    1
@<TRIPOS>MOLECULE
*****
 42 46 0 0 0
SMALL
GASTEIGER

@<TRIPOS>ATOM
      1 C         140.6905  141.6255  164.8215 C.ar    1  UNL1        0.1534
      2 N         141.0183  140.6015  163.7756 N.ar    1  UNL1       -0.2279
      3 C         140.2689  140.9587  162.5263 C.ar    1  UNL1        0.1036
      4 C         139.4780  142.2035  162.8000 C.ar    1  UNL1        0.1142
      5 C         138.5542  143.0150  161.9409 C.ar    1  UNL1        0.1432
      6 N         138.2936  142.6029  160.5224 N.pl3   1  UNL1       -0.3414
      7 N         137.8910  144.2386  162.5003 N.ar    1  UNL1       -0.2265
      8 C         138.1516  144.6507  163.9188 C.ar    1  UNL1        0.1193
      9 C         139.0754  143.8392  164.7780 C.ar    1  UNL1        0.1021
     10 N         139.7386  142.6156  164.2186 N.ar    1  UNL1       -0.2865
     11 H         138.7289  141.7998  160.1552 H       1  UNL1        0.1438
     12 H         137.6873  143.1355  159.9585 H       1  UNL1        0.1438
     13 C         140.6586  140.5589  171.2722 C.3     1  UNL1        0.0948
     14 C         140.1277  140.5300  169.8695 C.2     1  UNL1        0.2263
     15 O         138.7846  139.9245  169.5884 O.2     1  UNL1       -0.2749
     16 N         140.9401  141.1067  168.7481 N.am    1  UNL1       -0.2740
     17 C         142.2833  141.7122  169.0293 C.3     1  UNL1        0.1255
     18 C         143.0956  142.2888  167.9078 C.3     1  UNL1        0.1641
     19 O         142.5647  142.2600  166.5053 O.3     1  UNL1       -0.3451
     20 C         141.2215  141.6544  166.2241 C.3     1  UNL1        0.1913
     21 C         140.4092  141.0778  167.3456 C.3     1  UNL1        0.1307
     22 C         140.3042  140.2036  161.2307 C.ar    1  UNL1        0.0467
     23 C         141.3641  140.5081  160.2138 C.ar    1  UNL1        0.0039
     24 C         141.3995  139.7531  158.9182 C.ar    1  UNL1        0.0047
     25 C         140.3750  138.6935  158.6394 C.ar    1  UNL1        0.0559
     26 C         139.3152  138.3890  159.6562 C.ar    1  UNL1        0.0342
     27 C         139.2798  139.1441  160.9519 C.ar    1  UNL1        0.1417
     28 F         138.2199  138.8395  161.9687 F       1  UNL1       -0.2041
     29 C         140.4103  137.9384  157.3438 C.2     1  UNL1        0.2506
     30 O         139.1643  137.8046  156.5195 O.2     1  UNL1       -0.2698
     31 N         141.6917  137.3173  156.8725 N.am    1  UNL1       -0.2658
     32 H         142.5095  137.4052  157.4136 H       1  UNL1        0.1566
     33 C         141.7271  136.5622  155.5769 C.ar    1  UNL1        0.1343
     34 C         141.6879  135.0627  155.5813 C.ar    1  UNL1        0.0383
     35 C         141.7233  134.3077  154.2856 C.ar    1  UNL1        0.0757
     36 C         141.7980  135.0522  152.9856 C.ar    1  UNL1        0.0246
     37 C         141.8373  136.5516  152.9812 C.ar    1  UNL1        0.1003
     38 N         141.8018  137.3066  154.2768 N.ar    1  UNL1       -0.2290
     39 C         141.6841  132.8083  154.2901 C.3     1  UNL1        0.4187
     40 F         141.6449  131.3087  154.2946 F       1  UNL1       -0.1659
     41 F         140.8243  132.8344  155.5190 F       1  UNL1       -0.1659
     42 F         142.5439  132.7820  153.0612 F       1  UNL1       -0.1659
@<TRIPOS>BOND
     1    13    14    1
     2    14    15    2
     3    14    16   am
     4    16    17    1
     5    17    18    1
     6    18    19    1
     7    19    20    1
     8    20     1    1
     9     1     2   ar
    10     2     3   ar
    11     3    22    1
    12    22    23   ar
    13    23    24   ar
    14    24    25   ar
    15    25    29    1
    16    29    30    2
    17    29    31   am
    18    31    33    1
    19    33    34   ar
    20    34    35   ar
    21    35    39    1
    22    39    40    1
    23    39    41    1
    24    39    42    1
    25    35    36   ar
    26    36    37   ar
    27    37    38   ar
    28    25    26   ar
    29    26    27   ar
    30    27    28    1
    31     3     4   ar
    32     4     5   ar
    33     5     6    1
    34     5     7   ar
    35     7     8   ar
    36     8     9   ar
    37     9    10   ar
    38    20    21    1
    39    21    16    1
    40    10     1   ar
    41    27    22   ar
    42    10     4   ar
    43    38    33   ar
    44    31    32    1
    45     6    11    1
    46     6    12    1
@<TRIPOS>MOLECULE
*****
 42 46 0 0 0
SMALL
GASTEIGER

@<TRIPOS>ATOM
      1 C         139.7699  145.0439  157.1718 C.ar    1  UNL1        0.1534
      2 N         140.3122  145.1904  158.5627 N.ar    1  UNL1       -0.2279
      3 C         139.8895  143.9882  159.3540 C.ar    1  UNL1        0.1036
      4 C         139.0860  143.0987  158.4522 C.ar    1  UNL1        0.1142
      5 C         138.4122  141.7789  158.6848 C.ar    1  UNL1        0.1432
      6 N         138.4861  141.1264  160.0334 N.pl3   1  UNL1       -0.3414
      7 N         137.6644  141.1116  157.5688 N.ar    1  UNL1       -0.2265
      8 C         137.5904  141.7641  156.2202 C.ar    1  UNL1        0.1193
      9 C         138.2643  143.0839  155.9876 C.ar    1  UNL1        0.1021
     10 N         139.0121  143.7512  157.1036 N.ar    1  UNL1       -0.2865
     11 H         138.9769  141.5643  160.7659 H       1  UNL1        0.1438
     12 H         138.0438  140.2602  160.1861 H       1  UNL1        0.1438
     13 C         139.1879  150.7389  154.0131 C.3     1  UNL1        0.0948
     14 C         139.0046  149.7638  155.1382 C.2     1  UNL1        0.2263
     15 O         138.2555  150.1737  156.3713 O.2     1  UNL1       -0.2749
     16 N         139.5706  148.3789  155.0299 N.am    1  UNL1       -0.2740
     17 C         140.3197  147.9690  153.7968 C.3     1  UNL1        0.1255
     18 C         140.8856  146.5841  153.6887 C.3     1  UNL1        0.1641
     19 O         140.7024  145.6090  154.8136 O.3     1  UNL1       -0.3451
     20 C         139.9532  146.0189  156.0468 C.3     1  UNL1        0.1913
     21 C         139.3873  147.4038  156.1550 C.3     1  UNL1        0.1307
     22 C         140.2135  143.7222  160.7942 C.ar    1  UNL1        0.0467
     23 C         139.2323  144.0968  161.8653 C.ar    1  UNL1        0.0039
     24 C         139.5563  143.8308  163.3055 C.ar    1  UNL1        0.0047
     25 C         140.8614  143.1902  163.6747 C.ar    1  UNL1        0.0559
     26 C         141.8425  142.8155  162.6037 C.ar    1  UNL1        0.0342
     27 C         141.5185  143.0815  161.1635 C.ar    1  UNL1        0.1417
     28 F         142.4997  142.7069  160.0925 F       1  UNL1       -0.2041
     29 C         141.1854  142.9242  165.1150 C.2     1  UNL1        0.2506
     30 O         142.6157  142.8357  165.5580 O.2     1  UNL1       -0.2698
     31 N         140.0790  142.7466  166.1121 N.am    1  UNL1       -0.2658
     32 H         139.1402  142.8047  165.8213 H       1  UNL1        0.1566
     33 C         140.4029  142.4806  167.5524 C.ar    1  UNL1        0.1343
     34 C         140.9651  141.1516  167.9617 C.ar    1  UNL1        0.0383
     35 C         141.2890  140.8857  169.4020 C.ar    1  UNL1        0.0757
     36 C         141.0506  141.9488  170.4330 C.ar    1  UNL1        0.0246
     37 C         140.4884  143.2778  170.0237 C.ar    1  UNL1        0.1003
     38 N         140.1645  143.5438  168.5834 N.ar    1  UNL1       -0.2290
     39 C         141.8512  139.5566  169.8112 C.3     1  UNL1        0.4187
     40 F         142.4135  138.2275  170.2204 F       1  UNL1       -0.1659
     41 F         140.6563  139.3206  170.6866 F       1  UNL1       -0.1659
     42 F         143.0463  139.7926  168.9358 F       1  UNL1       -0.1659
@<TRIPOS>BOND
     1    13    14    1
     2    14    15    2
     3    14    16   am
     4    16    17    1
     5    17    18    1
     6    18    19    1
     7    19    20    1
     8    20     1    1
     9     1     2   ar
    10     2     3   ar
    11     3    22    1
    12    22    23   ar
    13    23    24   ar
    14    24    25   ar
    15    25    29    1
    16    29    30    2
    17    29    31   am
    18    31    33    1
    19    33    34   ar
    20    34    35   ar
    21    35    39    1
    22    39    40    1
    23    39    41    1
    24    39    42    1
    25    35    36   ar
    26    36    37   ar
    27    37    38   ar
    28    25    26   ar
    29    26    27   ar
    30    27    28    1
    31     3     4   ar
    32     4     5   ar
    33     5     6    1
    34     5     7   ar
    35     7     8   ar
    36     8     9   ar
    37     9    10   ar
    38    20    21    1
    39    21    16    1
    40    10     1   ar
    41    27    22   ar
    42    10     4   ar
    43    38    33   ar
    44    31    32    1
    45     6    11    1
    46     6    12    1
@<TRIPOS>MOLECULE
*****
 42 46 0 0 0
SMALL
GASTEIGER

@<TRIPOS>ATOM
      1 C         141.5538  141.9540  164.6987 C.ar    1  UNL1        0.1534
      2 N         142.6497  141.6613  163.7172 N.ar    1  UNL1       -0.2279
      3 C         142.1258  141.9421  162.3400 C.ar    1  UNL1        0.1036
      4 C         140.7061  142.4084  162.4703 C.ar    1  UNL1        0.1142
      5 C         139.6895  142.8273  161.4500 C.ar    1  UNL1        0.1432
      6 N         140.0430  142.8199  159.9922 N.pl3   1  UNL1       -0.3414
      7 N         138.3195  143.2535  161.8873 N.ar    1  UNL1       -0.2265
      8 C         137.9660  143.2609  163.3450 C.ar    1  UNL1        0.1193
      9 C         138.9826  142.8420  164.3654 C.ar    1  UNL1        0.1021
     10 N         140.3526  142.4158  163.9281 N.ar    1  UNL1       -0.2865
     11 H         140.9422  142.5402  159.7052 H       1  UNL1        0.1438
     12 H         139.3758  143.0948  159.3225 H       1  UNL1        0.1438
     13 C         139.7568  139.9281  170.6498 C.3     1  UNL1        0.0948
     14 C         139.6673  140.0719  169.1594 C.2     1  UNL1        0.2263
     15 O         138.5450  139.4184  168.4090 O.2     1  UNL1       -0.2749
     16 N         140.7002  140.8692  168.4195 N.am    1  UNL1       -0.2740
     17 C         141.8225  141.5228  169.1698 C.3     1  UNL1        0.1255
     18 C         142.8553  142.3201  168.4299 C.3     1  UNL1        0.1641
     19 O         142.7658  142.4639  166.9395 O.3     1  UNL1       -0.3451
     20 C         141.6434  141.8103  166.1891 C.3     1  UNL1        0.1913
     21 C         140.6106  141.0130  166.9291 C.3     1  UNL1        0.1307
     22 C         142.8878  141.7843  161.0577 C.ar    1  UNL1        0.0467
     23 C         143.5866  142.9646  160.4504 C.ar    1  UNL1        0.0039
     24 C         144.3487  142.8068  159.1680 C.ar    1  UNL1        0.0047
     25 C         144.4119  141.4688  158.4929 C.ar    1  UNL1        0.0559
     26 C         143.7131  140.2886  159.1002 C.ar    1  UNL1        0.0342
     27 C         142.9511  140.4464  160.3826 C.ar    1  UNL1        0.1417
     28 F         142.2523  139.2661  160.9898 F       1  UNL1       -0.2041
     29 C         145.1739  141.3110  157.2106 C.2     1  UNL1        0.2506
     30 O         145.1303  140.0086  156.4677 O.2     1  UNL1       -0.2698
     31 N         145.9794  142.4556  156.6712 N.am    1  UNL1       -0.2658
     32 H         146.0080  143.3104  157.1589 H       1  UNL1        0.1566
     33 C         146.7415  142.2979  155.3888 C.ar    1  UNL1        0.1343
     34 C         148.2245  142.0749  155.4202 C.ar    1  UNL1        0.0383
     35 C         148.9864  141.9172  154.1378 C.ar    1  UNL1        0.0757
     36 C         148.2654  141.9825  152.8240 C.ar    1  UNL1        0.0246
     37 C         146.7824  142.2054  152.7927 C.ar    1  UNL1        0.1003
     38 N         146.0205  142.3631  154.0751 N.ar    1  UNL1       -0.2290
     39 C         150.4694  141.6942  154.1692 C.3     1  UNL1        0.4187
     40 F         151.9525  141.4712  154.2005 F       1  UNL1       -0.1659
     41 F         150.4527  141.7933  155.6658 F       1  UNL1       -0.1659
     42 F         150.4862  141.5951  152.6725 F       1  UNL1       -0.1659
@<TRIPOS>BOND
     1    13    14    1
     2    14    15    2
     3    14    16   am
     4    16    17    1
     5    17    18    1
     6    18    19    1
     7    19    20    1
     8    20     1    1
     9     1     2   ar
    10     2     3   ar
    11     3    22    1
    12    22    23   ar
    13    23    24   ar
    14    24    25   ar
    15    25    29    1
    16    29    30    2
    17    29    31   am
    18    31    33    1
    19    33    34   ar
    20    34    35   ar
    21    35    39    1
    22    39    40    1
    23    39    41    1
    24    39    42    1
    25    35    36   ar
    26    36    37   ar
    27    37    38   ar
    28    25    26   ar
    29    26    27   ar
    30    27    28    1
    31     3     4   ar
    32     4     5   ar
    33     5     6    1
    34     5     7   ar
    35     7     8   ar
    36     8     9   ar
    37     9    10   ar
    38    20    21    1
    39    21    16    1
    40    10     1   ar
    41    27    22   ar
    42    10     4   ar
    43    38    33   ar
    44    31    32    1
    45     6    11    1
    46     6    12    1
@<TRIPOS>MOLECULE
*****
 42 46 0 0 0
SMALL
GASTEIGER

@<TRIPOS>ATOM
      1 C         144.5782  141.3654  157.0999 C.ar    1  UNL1        0.1534
      2 N         144.5420  141.7860  158.5393 N.ar    1  UNL1       -0.2279
      3 C         143.8358  140.7155  159.3174 C.ar    1  UNL1        0.1036
      4 C         143.4356  139.6333  158.3589 C.ar    1  UNL1        0.1142
      5 C         142.7126  138.3340  158.5570 C.ar    1  UNL1        0.1432
      6 N         142.2538  137.9324  159.9274 N.pl3   1  UNL1       -0.3414
      7 N         142.4485  137.4364  157.3846 N.ar    1  UNL1       -0.2265
      8 C         142.9073  137.8381  156.0142 C.ar    1  UNL1        0.1193
      9 C         143.6303  139.1373  155.8161 C.ar    1  UNL1        0.1021
     10 N         143.8944  140.0350  156.9885 N.ar    1  UNL1       -0.2865
     11 H         142.4271  138.5215  160.6969 H       1  UNL1        0.1438
     12 H         141.7793  137.0796  160.0574 H       1  UNL1        0.1438
     13 C         149.3346  143.3787  153.0908 C.3     1  UNL1        0.0948
     14 C         148.7220  142.6048  154.2204 C.2     1  UNL1        0.2263
     15 O         149.5690  141.6768  155.0397 O.2     1  UNL1       -0.2749
     16 N         147.2626  142.7590  154.5305 N.am    1  UNL1       -0.2740
     17 C         146.4156  143.6870  153.7112 C.3     1  UNL1        0.1255
     18 C         144.9562  143.8412  154.0214 C.3     1  UNL1        0.1641
     19 O         144.3437  143.0674  155.1509 O.3     1  UNL1       -0.3451
     20 C         145.1907  142.1393  155.9703 C.3     1  UNL1        0.1913
     21 C         146.6501  141.9851  155.6601 C.3     1  UNL1        0.1307
     22 C         143.5756  140.7255  160.7946 C.ar    1  UNL1        0.0467
     23 C         144.4753  139.9609  161.7198 C.ar    1  UNL1        0.0039
     24 C         144.2150  139.9709  163.1971 C.ar    1  UNL1        0.0047
     25 C         143.0552  140.7455  163.7491 C.ar    1  UNL1        0.0559
     26 C         142.1556  141.5101  162.8239 C.ar    1  UNL1        0.0342
     27 C         142.4158  141.5001  161.3466 C.ar    1  UNL1        0.1417
     28 F         141.5161  142.2648  160.4214 F       1  UNL1       -0.2041
     29 C         142.7949  140.7555  165.2263 C.2     1  UNL1        0.2506
     30 O         142.7240  139.4630  165.9841 O.2     1  UNL1       -0.2698
     31 N         142.6056  142.0581  165.9456 N.am    1  UNL1       -0.2658
     32 H         142.6522  142.9064  165.4482 H       1  UNL1        0.1566
     33 C         142.3454  142.0682  167.4228 C.ar    1  UNL1        0.1343
     34 C         141.0089  141.6393  167.9520 C.ar    1  UNL1        0.0383
     35 C         140.7488  141.6495  169.4292 C.ar    1  UNL1        0.0757
     36 C         141.8251  142.0884  170.3773 C.ar    1  UNL1        0.0246
     37 C         143.1615  142.5173  169.8482 C.ar    1  UNL1        0.1003
     38 N         143.4217  142.5071  168.3709 N.ar    1  UNL1       -0.2290
     39 C         139.4123  141.2206  169.9583 C.3     1  UNL1        0.4187
     40 F         138.0758  140.7917  170.4873 F       1  UNL1       -0.1659
     41 F         139.2419  142.5593  170.6132 F       1  UNL1       -0.1659
     42 F         139.5827  139.8819  169.3034 F       1  UNL1       -0.1659
@<TRIPOS>BOND
     1    13    14    1
     2    14    15    2
     3    14    16   am
     4    16    17    1
     5    17    18    1
     6    18    19    1
     7    19    20    1
     8    20     1    1
     9     1     2   ar
    10     2     3   ar
    11     3    22    1
    12    22    23   ar
    13    23    24   ar
    14    24    25   ar
    15    25    29    1
    16    29    30    2
    17    29    31   am
    18    31    33    1
    19    33    34   ar
    20    34    35   ar
    21    35    39    1
    22    39    40    1
    23    39    41    1
    24    39    42    1
    25    35    36   ar
    26    36    37   ar
    27    37    38   ar
    28    25    26   ar
    29    26    27   ar
    30    27    28    1
    31     3     4   ar
    32     4     5   ar
    33     5     6    1
    34     5     7   ar
    35     7     8   ar
    36     8     9   ar
    37     9    10   ar
    38    20    21    1
    39    21    16    1
    40    10     1   ar
    41    27    22   ar
    42    10     4   ar
    43    38    33   ar
    44    31    32    1
    45     6    11    1
    46     6    12    1
