@<TRIPOS>MOLECULE
*****
 27 30 0 0 0
SMALL
GASTEIGER

@<TRIPOS>ATOM
      1 C         140.0754  137.4740  162.9073 C.3     1  UNL1        0.0721
      2 C         140.6700  137.9930  161.6317 C.3     1  UNL1        0.0191
      3 C         139.6885  138.3646  160.5600 C.3     1  UNL1        0.0062
      4 C         139.9622  138.9067  159.1885 C.3     1  UNL1        0.0277
      5 C         141.2849  139.2112  158.5498 C.ar    1  UNL1       -0.0063
      6 C         141.1120  139.7419  157.1576 C.ar    1  UNL1       -0.0014
      7 C         142.3148  140.1102  156.3406 C.ar    1  UNL1        0.0203
      8 C         143.6905  139.9477  156.9159 C.ar    1  UNL1        0.0985
      9 N         143.8634  139.4170  158.3081 N.ar    1  UNL1       -0.2461
     10 C         142.6606  139.0487  159.1251 C.ar    1  UNL1        0.0817
     11 C         143.0534  138.5416  160.4810 C.3     1  UNL1        0.1498
     12 O         144.5270  138.4987  160.7580 O.3     1  UNL1       -0.3785
     13 C         142.1676  138.0718  161.5966 C.3     1  UNL1        0.0368
     14 H         145.0114  138.8200  159.9815 H       1  UNL1        0.2108
     15 C         140.0033  140.0756  166.5783 C.3     1  UNL1        0.0248
     16 C         138.7959  139.9958  165.6918 C.3     1  UNL1        0.0217
     17 C         138.8199  139.1285  164.4681 C.3     1  UNL1        0.0724
     18 N         140.0513  138.3412  164.1309 N.3     1  UNL1       -0.2727
     19 C         141.2587  138.4210  165.0175 C.3     1  UNL1        0.0724
     20 C         141.2347  139.2882  166.2411 C.3     1  UNL1        0.0217
     21 C         140.9440  142.9199  166.4197 C.3     1  UNL1        0.0307
     22 C         140.4496  142.3650  167.7227 C.ar    1  UNL1       -0.0258
     23 C         140.4257  143.2322  168.9463 C.ar    1  UNL1       -0.0046
     24 C         139.9313  142.6773  170.2492 C.ar    1  UNL1       -0.0003
     25 C         139.4609  141.2552  170.3285 C.ar    1  UNL1       -0.0003
     26 C         139.4849  140.3879  169.1049 C.ar    1  UNL1       -0.0046
     27 C         139.9793  140.9428  167.8020 C.ar    1  UNL1       -0.0264
@<TRIPOS>BOND
     1    21    22    1
     2    22    23   ar
     3    23    24   ar
     4    24    25   ar
     5    25    26   ar
     6    26    27   ar
     7    27    15    1
     8    15    16    1
     9    16    17    1
    10    17    18    1
    11    18     1    1
    12     2     1    1
    13     2     3    1
    14     3     4    1
    15     4     5    1
    16     5     6   ar
    17     6     7   ar
    18     7     8   ar
    19     8     9   ar
    20     9    10   ar
    21    10    11    1
    22    11    12    1
    23    11    13    1
    24    18    19    1
    25    19    20    1
    26    27    22   ar
    27    20    15    1
    28    13     2    1
    29    10     5   ar
    30    12    14    1
@<TRIPOS>MOLECULE
*****
 27 30 0 0 0
SMALL
GASTEIGER

@<TRIPOS>ATOM
      1 C         140.0472  137.3443  163.5689 C.3     1  UNL1        0.0721
      2 C         139.8808  137.9881  162.2243 C.3     1  UNL1        0.0191
      3 C         141.1152  138.0481  161.3742 C.3     1  UNL1        0.0062
      4 C         141.2756  138.6216  159.9975 C.3     1  UNL1        0.0277
      5 C         140.2414  139.2768  159.1308 C.ar    1  UNL1       -0.0063
      6 C         140.8224  139.7126  157.8184 C.ar    1  UNL1       -0.0014
      7 C         139.9532  140.3919  156.8021 C.ar    1  UNL1        0.0203
      8 C         138.5030  140.6353  157.0981 C.ar    1  UNL1        0.0985
      9 N         137.9220  140.1995  158.4105 N.ar    1  UNL1       -0.2461
     10 C         138.7912  139.5202  159.4269 C.ar    1  UNL1        0.0817
     11 C         138.0171  139.1686  160.6627 C.3     1  UNL1        0.1498
     12 O         136.5663  139.5493  160.6521 O.3     1  UNL1       -0.3785
     13 C         138.5020  138.4868  161.9077 C.3     1  UNL1        0.0368
     14 H         136.3514  139.9809  159.8105 H       1  UNL1        0.2108
     15 C         140.3625  139.8961  167.2619 C.3     1  UNL1        0.0248
     16 C         139.0169  139.4525  166.7695 C.3     1  UNL1        0.0217
     17 C         138.9118  138.6019  165.5384 C.3     1  UNL1        0.0724
     18 N         140.1523  138.1949  164.7999 N.3     1  UNL1       -0.2727
     19 C         141.4979  138.6385  165.2924 C.3     1  UNL1        0.0724
     20 C         141.6030  139.4891  166.5234 C.3     1  UNL1        0.0217
     21 C         140.3858  142.8864  167.0214 C.3     1  UNL1        0.0307
     22 C         140.4793  142.2419  168.3727 C.ar    1  UNL1       -0.0258
     23 C         140.5844  143.0925  169.6037 C.ar    1  UNL1       -0.0046
     24 C         140.6779  142.4480  170.9549 C.ar    1  UNL1       -0.0003
     25 C         140.6663  140.9529  171.0752 C.ar    1  UNL1       -0.0003
     26 C         140.5612  140.1023  169.8442 C.ar    1  UNL1       -0.0046
     27 C         140.4677  140.7468  168.4930 C.ar    1  UNL1       -0.0264
@<TRIPOS>BOND
     1    21    22    1
     2    22    23   ar
     3    23    24   ar
     4    24    25   ar
     5    25    26   ar
     6    26    27   ar
     7    27    15    1
     8    15    16    1
     9    16    17    1
    10    17    18    1
    11    18     1    1
    12     2     1    1
    13     2     3    1
    14     3     4    1
    15     4     5    1
    16     5     6   ar
    17     6     7   ar
    18     7     8   ar
    19     8     9   ar
    20     9    10   ar
    21    10    11    1
    22    11    12    1
    23    11    13    1
    24    18    19    1
    25    19    20    1
    26    27    22   ar
    27    20    15    1
    28    13     2    1
    29    10     5   ar
    30    12    14    1
@<TRIPOS>MOLECULE
*****
 27 30 0 0 0
SMALL
GASTEIGER

@<TRIPOS>ATOM
      1 C         137.6417  142.4895  162.9569 C.3     1  UNL1        0.0721
      2 C         138.4326  143.0214  161.7987 C.3     1  UNL1        0.0191
      3 C         138.3157  142.2459  160.5200 C.3     1  UNL1        0.0062
      4 C         138.9732  142.5160  159.1991 C.3     1  UNL1        0.0277
      5 C         139.9100  143.6281  158.8306 C.ar    1  UNL1       -0.0063
      6 C         140.3396  143.5303  157.3968 C.ar    1  UNL1       -0.0014
      7 C         141.2799  144.5493  156.8245 C.ar    1  UNL1        0.0203
      8 C         141.7905  145.6660  157.6860 C.ar    1  UNL1        0.0985
      9 N         141.3609  145.7638  159.1198 N.ar    1  UNL1       -0.2461
     10 C         140.4206  144.7448  159.6921 C.ar    1  UNL1        0.0817
     11 C         140.1206  145.0253  161.1348 C.3     1  UNL1        0.1498
     12 O         140.7944  146.2324  161.7169 O.3     1  UNL1       -0.3785
     13 C         139.2359  144.2583  162.0723 C.3     1  UNL1        0.0368
     14 H         141.3405  146.6572  161.0370 H       1  UNL1        0.2108
     15 C         139.7661  140.8931  166.5885 C.3     1  UNL1        0.0248
     16 C         139.9327  142.3305  166.1936 C.3     1  UNL1        0.0217
     17 C         139.2246  142.8627  164.9830 C.3     1  UNL1        0.0724
     18 N         138.3498  141.9574  164.1674 N.3     1  UNL1       -0.2727
     19 C         138.1832  140.5199  164.5624 C.3     1  UNL1        0.0724
     20 C         138.8913  139.9878  165.7729 C.3     1  UNL1        0.0217
     21 C         142.5364  139.7705  166.3331 C.3     1  UNL1        0.0307
     22 C         141.8594  139.7996  167.6714 C.ar    1  UNL1       -0.0258
     23 C         142.5675  139.2674  168.8818 C.ar    1  UNL1       -0.0046
     24 C         141.8905  139.2965  170.2200 C.ar    1  UNL1       -0.0003
     25 C         140.5054  139.8578  170.3477 C.ar    1  UNL1       -0.0003
     26 C         139.7972  140.3900  169.1372 C.ar    1  UNL1       -0.0046
     27 C         140.4742  140.3609  167.7991 C.ar    1  UNL1       -0.0264
@<TRIPOS>BOND
     1    21    22    1
     2    22    23   ar
     3    23    24   ar
     4    24    25   ar
     5    25    26   ar
     6    26    27   ar
     7    27    15    1
     8    15    16    1
     9    16    17    1
    10    17    18    1
    11    18     1    1
    12     2     1    1
    13     2     3    1
    14     3     4    1
    15     4     5    1
    16     5     6   ar
    17     6     7   ar
    18     7     8   ar
    19     8     9   ar
    20     9    10   ar
    21    10    11    1
    22    11    12    1
    23    11    13    1
    24    18    19    1
    25    19    20    1
    26    27    22   ar
    27    20    15    1
    28    13     2    1
    29    10     5   ar
    30    12    14    1
@<TRIPOS>MOLECULE
*****
 27 30 0 0 0
SMALL
GASTEIGER

@<TRIPOS>ATOM
      1 C         137.9906  143.7092  163.4540 C.3     1  UNL1        0.0721
      2 C         138.6670  143.8612  162.1238 C.3     1  UNL1        0.0191
      3 C         139.5618  145.0566  161.9815 C.3     1  UNL1        0.0062
      4 C         140.3696  145.4836  160.7919 C.3     1  UNL1        0.0277
      5 C         140.4823  144.8208  159.4510 C.ar    1  UNL1       -0.0063
      6 C         141.4017  145.5792  158.5403 C.ar    1  UNL1       -0.0014
      7 C         141.6537  145.0840  157.1471 C.ar    1  UNL1        0.0203
      8 C         140.9862  143.8303  156.6645 C.ar    1  UNL1        0.0985
      9 N         140.0668  143.0719  157.5752 N.ar    1  UNL1       -0.2461
     10 C         139.8148  143.5672  158.9685 C.ar    1  UNL1        0.0817
     11 C         138.8699  142.6668  159.7077 C.3     1  UNL1        0.1498
     12 O         138.3696  141.4784  158.9412 O.3     1  UNL1       -0.3785
     13 C         138.3590  142.7975  161.1119 C.3     1  UNL1        0.0368
     14 H         138.7544  141.4826  158.0508 H       1  UNL1        0.2108
     15 C         140.0238  141.4402  166.7658 C.3     1  UNL1        0.0248
     16 C         139.1107  140.7232  165.8160 C.3     1  UNL1        0.0217
     17 C         138.4329  141.4795  164.7121 C.3     1  UNL1        0.0724
     18 N         138.6683  142.9529  164.5579 N.3     1  UNL1       -0.2727
     19 C         139.5815  143.6699  165.5078 C.3     1  UNL1        0.0724
     20 C         140.2592  142.9136  166.6117 C.3     1  UNL1        0.0217
     21 C         142.7089  140.1871  166.2969 C.3     1  UNL1        0.0307
     22 C         142.0441  140.0573  167.6353 C.ar    1  UNL1       -0.0258
     23 C         142.7219  139.3010  168.7392 C.ar    1  UNL1       -0.0046
     24 C         142.0571  139.1712  170.0775 C.ar    1  UNL1       -0.0003
     25 C         140.7145  139.7978  170.3120 C.ar    1  UNL1       -0.0003
     26 C         140.0367  140.5541  169.2081 C.ar    1  UNL1       -0.0046
     27 C         140.7015  140.6839  167.8698 C.ar    1  UNL1       -0.0264
@<TRIPOS>BOND
     1    21    22    1
     2    22    23   ar
     3    23    24   ar
     4    24    25   ar
     5    25    26   ar
     6    26    27   ar
     7    27    15    1
     8    15    16    1
     9    16    17    1
    10    17    18    1
    11    18     1    1
    12     2     1    1
    13     2     3    1
    14     3     4    1
    15     4     5    1
    16     5     6   ar
    17     6     7   ar
    18     7     8   ar
    19     8     9   ar
    20     9    10   ar
    21    10    11    1
    22    11    12    1
    23    11    13    1
    24    18    19    1
    25    19    20    1
    26    27    22   ar
    27    20    15    1
    28    13     2    1
    29    10     5   ar
    30    12    14    1
@<TRIPOS>MOLECULE
*****
 27 30 0 0 0
SMALL
GASTEIGER

@<TRIPOS>ATOM
      1 C         144.1515  138.8401  163.1899 C.3     1  UNL1        0.0721
      2 C         143.3584  138.8760  161.9172 C.3     1  UNL1        0.0191
      3 C         144.0639  139.4551  160.7269 C.3     1  UNL1        0.0062
      4 C         143.5498  139.6292  159.3285 C.3     1  UNL1        0.0277
      5 C         142.2034  139.2674  158.7751 C.ar    1  UNL1       -0.0063
      6 C         142.0991  139.6112  157.3188 C.ar    1  UNL1       -0.0014
      7 C         140.8298  139.3297  156.5708 C.ar    1  UNL1        0.0203
      8 C         139.6648  138.7042  157.2792 C.ar    1  UNL1        0.0985
      9 N         139.7692  138.3604  158.7355 N.ar    1  UNL1       -0.2461
     10 C         141.0385  138.6420  159.4834 C.ar    1  UNL1        0.0817
     11 C         140.9323  138.2240  160.9201 C.3     1  UNL1        0.1498
     12 O         139.6200  137.6222  161.3275 O.3     1  UNL1       -0.3785
     13 C         141.9647  138.3281  162.0033 C.3     1  UNL1        0.0368
     14 H         139.0238  137.5988  160.5627 H       1  UNL1        0.2108
     15 C         142.7909  141.2221  166.7570 C.3     1  UNL1        0.0248
     16 C         142.6337  139.7305  166.7471 C.3     1  UNL1        0.0217
     17 C         143.0872  138.9364  165.5580 C.3     1  UNL1        0.0724
     18 N         143.6980  139.6341  164.3789 N.3     1  UNL1       -0.2727
     19 C         143.8552  141.1258  164.3889 C.3     1  UNL1        0.0724
     20 C         143.4017  141.9198  165.5780 C.3     1  UNL1        0.0217
     21 C         140.0374  142.4121  166.8043 C.3     1  UNL1        0.0307
     22 C         140.9606  142.6112  167.9697 C.ar    1  UNL1       -0.0258
     23 C         140.5071  143.4053  169.1587 C.ar    1  UNL1       -0.0046
     24 C         141.4303  143.6043  170.3240 C.ar    1  UNL1       -0.0003
     25 C         142.8070  143.0094  170.3004 C.ar    1  UNL1       -0.0003
     26 C         143.2606  142.2153  169.1114 C.ar    1  UNL1       -0.0046
     27 C         142.3374  142.0162  167.9461 C.ar    1  UNL1       -0.0264
@<TRIPOS>BOND
     1    21    22    1
     2    22    23   ar
     3    23    24   ar
     4    24    25   ar
     5    25    26   ar
     6    26    27   ar
     7    27    15    1
     8    15    16    1
     9    16    17    1
    10    17    18    1
    11    18     1    1
    12     2     1    1
    13     2     3    1
    14     3     4    1
    15     4     5    1
    16     5     6   ar
    17     6     7   ar
    18     7     8   ar
    19     8     9   ar
    20     9    10   ar
    21    10    11    1
    22    11    12    1
    23    11    13    1
    24    18    19    1
    25    19    20    1
    26    27    22   ar
    27    20    15    1
    28    13     2    1
    29    10     5   ar
    30    12    14    1
@<TRIPOS>MOLECULE
*****
 27 30 0 0 0
SMALL
GASTEIGER

@<TRIPOS>ATOM
      1 C         137.4054  141.4255  163.1010 C.3     1  UNL1        0.0721
      2 C         137.9888  141.0324  161.7762 C.3     1  UNL1        0.0191
      3 C         138.2700  139.5699  161.5970 C.3     1  UNL1        0.0062
      4 C         138.8457  138.8677  160.4031 C.3     1  UNL1        0.0277
      5 C         139.2825  139.4545  159.0936 C.ar    1  UNL1       -0.0063
      6 C         139.8033  138.3971  158.1658 C.ar    1  UNL1       -0.0014
      7 C         140.2931  138.7737  156.7990 C.ar    1  UNL1        0.0203
      8 C         140.2620  140.2077  156.3599 C.ar    1  UNL1        0.0985
      9 N         139.7412  141.2650  157.2876 N.ar    1  UNL1       -0.2461
     10 C         139.2514  140.8884  158.6544 C.ar    1  UNL1        0.0817
     11 C         138.7759  142.0897  159.4165 C.3     1  UNL1        0.1498
     12 O         138.8754  143.4003  158.6936 O.3     1  UNL1       -0.3785
     13 C         138.2140  142.1539  160.8058 C.3     1  UNL1        0.0368
     14 H         139.2479  143.2546  157.8099 H       1  UNL1        0.2108
     15 C         140.1117  142.1850  166.6151 C.3     1  UNL1        0.0248
     16 C         139.4951  140.8313  166.4222 C.3     1  UNL1        0.0217
     17 C         138.5930  140.5781  165.2508 C.3     1  UNL1        0.0724
     18 N         138.3074  141.6786  164.2724 N.3     1  UNL1       -0.2727
     19 C         138.9240  143.0324  164.4654 C.3     1  UNL1        0.0724
     20 C         139.8261  143.2856  165.6367 C.3     1  UNL1        0.0217
     21 C         143.0172  141.4555  166.4559 C.3     1  UNL1        0.0307
     22 C         142.4666  142.0735  167.7069 C.ar    1  UNL1       -0.0258
     23 C         143.3687  142.3267  168.8782 C.ar    1  UNL1       -0.0046
     24 C         142.8180  142.9446  170.1292 C.ar    1  UNL1       -0.0003
     25 C         141.3652  143.3094  170.2088 C.ar    1  UNL1       -0.0003
     26 C         140.4631  143.0562  169.0375 C.ar    1  UNL1       -0.0046
     27 C         141.0138  142.4382  167.7865 C.ar    1  UNL1       -0.0264
@<TRIPOS>BOND
     1    21    22    1
     2    22    23   ar
     3    23    24   ar
     4    24    25   ar
     5    25    26   ar
     6    26    27   ar
     7    27    15    1
     8    15    16    1
     9    16    17    1
    10    17    18    1
    11    18     1    1
    12     2     1    1
    13     2     3    1
    14     3     4    1
    15     4     5    1
    16     5     6   ar
    17     6     7   ar
    18     7     8   ar
    19     8     9   ar
    20     9    10   ar
    21    10    11    1
    22    11    12    1
    23    11    13    1
    24    18    19    1
    25    19    20    1
    26    27    22   ar
    27    20    15    1
    28    13     2    1
    29    10     5   ar
    30    12    14    1
@<TRIPOS>MOLECULE
*****
 27 30 0 0 0
SMALL
GASTEIGER

@<TRIPOS>ATOM
      1 C         138.5977  138.7365  163.4712 C.3     1  UNL1        0.0721
      2 C         138.6234  139.4250  162.1388 C.3     1  UNL1        0.0191
      3 C         139.0880  138.5891  160.9831 C.3     1  UNL1        0.0062
      4 C         139.2250  138.9802  159.5415 C.3     1  UNL1        0.0277
      5 C         138.9313  140.3037  158.8994 C.ar    1  UNL1       -0.0063
      6 C         139.2052  140.2704  157.4251 C.ar    1  UNL1       -0.0014
      7 C         138.9758  141.4963  156.5917 C.ar    1  UNL1        0.0203
      8 C         138.4726  142.7556  157.2328 C.ar    1  UNL1        0.0985
      9 N         138.1987  142.7889  158.7072 N.ar    1  UNL1       -0.2461
     10 C         138.4281  141.5630  159.5405 C.ar    1  UNL1        0.0817
     11 C         138.0943  141.8098  160.9819 C.3     1  UNL1        0.1498
     12 O         137.6094  143.1907  161.3104 O.3     1  UNL1       -0.3785
     13 C         138.1812  140.8584  162.1383 C.3     1  UNL1        0.0368
     14 H         137.5884  143.7268  160.5023 H       1  UNL1        0.2108
     15 C         140.5292  140.6752  167.0434 C.3     1  UNL1        0.0248
     16 C         139.2544  139.9019  167.2076 C.3     1  UNL1        0.0217
     17 C         138.6106  139.2556  166.0168 C.3     1  UNL1        0.0724
     18 N         139.2415  139.3827  164.6619 N.3     1  UNL1       -0.2727
     19 C         140.5163  140.1561  164.4978 C.3     1  UNL1        0.0724
     20 C         141.1601  140.8023  165.6885 C.3     1  UNL1        0.0217
     21 C         142.7144  139.2503  168.5247 C.3     1  UNL1        0.0307
     22 C         142.2656  140.6090  168.9748 C.ar    1  UNL1       -0.0258
     23 C         142.9095  141.2553  170.1655 C.ar    1  UNL1       -0.0046
     24 C         142.4607  142.6139  170.6155 C.ar    1  UNL1       -0.0003
     25 C         141.3681  143.3264  169.8749 C.ar    1  UNL1       -0.0003
     26 C         140.7242  142.6802  168.6842 C.ar    1  UNL1       -0.0046
     27 C         141.1730  141.3215  168.2341 C.ar    1  UNL1       -0.0264
@<TRIPOS>BOND
     1    21    22    1
     2    22    23   ar
     3    23    24   ar
     4    24    25   ar
     5    25    26   ar
     6    26    27   ar
     7    27    15    1
     8    15    16    1
     9    16    17    1
    10    17    18    1
    11    18     1    1
    12     2     1    1
    13     2     3    1
    14     3     4    1
    15     4     5    1
    16     5     6   ar
    17     6     7   ar
    18     7     8   ar
    19     8     9   ar
    20     9    10   ar
    21    10    11    1
    22    11    12    1
    23    11    13    1
    24    18    19    1
    25    19    20    1
    26    27    22   ar
    27    20    15    1
    28    13     2    1
    29    10     5   ar
    30    12    14    1
@<TRIPOS>MOLECULE
*****
 27 30 0 0 0
SMALL
GASTEIGER

@<TRIPOS>ATOM
      1 C         143.6392  143.4539  162.7926 C.3     1  UNL1        0.0721
      2 C         143.4535  142.6076  161.5681 C.3     1  UNL1        0.0191
      3 C         142.7979  143.2856  160.4017 C.3     1  UNL1        0.0062
      4 C         142.4749  142.7187  159.0511 C.3     1  UNL1        0.0277
      5 C         142.7275  141.3337  158.5332 C.ar    1  UNL1       -0.0063
      6 C         142.2476  141.1809  157.1204 C.ar    1  UNL1       -0.0014
      7 C         142.4058  139.8680  156.4125 C.ar    1  UNL1        0.0203
      8 C         143.0440  138.7079  157.1174 C.ar    1  UNL1        0.0985
      9 N         143.5239  138.8607  158.5303 N.ar    1  UNL1       -0.2461
     10 C         143.3657  140.1736  159.2382 C.ar    1  UNL1        0.0817
     11 C         143.9088  140.1121  160.6351 C.3     1  UNL1        0.1498
     12 O         144.4896  138.7927  161.0499 O.3     1  UNL1       -0.3785
     13 C         143.9479  141.1952  161.6721 C.3     1  UNL1        0.0368
     14 H         144.4178  138.1627  160.3159 H       1  UNL1        0.2108
     15 C         141.4505  142.4298  166.5887 C.3     1  UNL1        0.0248
     16 C         142.8967  142.0627  166.4345 C.3     1  UNL1        0.0217
     17 C         143.6263  142.4041  165.1691 C.3     1  UNL1        0.0724
     18 N         142.9097  143.1125  164.0580 N.3     1  UNL1       -0.2727
     19 C         141.4635  143.4796  164.2123 C.3     1  UNL1        0.0724
     20 C         140.7339  143.1382  165.4776 C.3     1  UNL1        0.0217
     21 C         140.1244  139.7547  166.8805 C.3     1  UNL1        0.0307
     22 C         140.0578  140.7509  168.0000 C.ar    1  UNL1       -0.0258
     23 C         139.3282  140.4095  169.2654 C.ar    1  UNL1       -0.0046
     24 C         139.2617  141.4056  170.3848 C.ar    1  UNL1       -0.0003
     25 C         139.9248  142.7432  170.2389 C.ar    1  UNL1       -0.0003
     26 C         140.6544  143.0846  168.9736 C.ar    1  UNL1       -0.0046
     27 C         140.7209  142.0884  167.8542 C.ar    1  UNL1       -0.0264
@<TRIPOS>BOND
     1    21    22    1
     2    22    23   ar
     3    23    24   ar
     4    24    25   ar
     5    25    26   ar
     6    26    27   ar
     7    27    15    1
     8    15    16    1
     9    16    17    1
    10    17    18    1
    11    18     1    1
    12     2     1    1
    13     2     3    1
    14     3     4    1
    15     4     5    1
    16     5     6   ar
    17     6     7   ar
    18     7     8   ar
    19     8     9   ar
    20     9    10   ar
    21    10    11    1
    22    11    12    1
    23    11    13    1
    24    18    19    1
    25    19    20    1
    26    27    22   ar
    27    20    15    1
    28    13     2    1
    29    10     5   ar
    30    12    14    1
@<TRIPOS>MOLECULE
*****
 27 30 0 0 0
SMALL
GASTEIGER

@<TRIPOS>ATOM
      1 C         145.0539  140.5643  163.3737 C.3     1  UNL1        0.0721
      2 C         144.4564  140.3159  162.0205 C.3     1  UNL1        0.0191
      3 C         144.3158  141.5221  161.1398 C.3     1  UNL1        0.0062
      4 C         143.7626  141.6043  159.7480 C.3     1  UNL1        0.0277
      5 C         143.2133  140.5009  158.8931 C.ar    1  UNL1       -0.0063
      6 C         142.7617  141.0149  157.5582 C.ar    1  UNL1       -0.0014
      7 C         142.1784  140.0707  156.5492 C.ar    1  UNL1        0.0203
      8 C         142.0467  138.6124  156.8751 C.ar    1  UNL1        0.0985
      9 N         142.4983  138.0984  158.2099 N.ar    1  UNL1       -0.2461
     10 C         143.0816  139.0427  159.2189 C.ar    1  UNL1        0.0817
     11 C         143.4666  138.3277  160.4801 C.3     1  UNL1        0.1498
     12 O         143.2053  136.8507  160.4966 O.3     1  UNL1       -0.3785
     13 C         144.0785  138.8943  161.7269 C.3     1  UNL1        0.0368
     14 H         142.8117  136.5826  159.6516 H       1  UNL1        0.2108
     15 C         142.4516  140.4250  167.0424 C.3     1  UNL1        0.0248
     16 C         142.7683  141.7415  166.3971 C.3     1  UNL1        0.0217
     17 C         143.6358  141.7880  165.1742 C.3     1  UNL1        0.0724
     18 N         144.1865  140.5179  164.5966 N.3     1  UNL1       -0.2727
     19 C         143.8697  139.2013  165.2419 C.3     1  UNL1        0.0724
     20 C         143.0023  139.1549  166.4648 C.3     1  UNL1        0.0217
     21 C         139.4802  140.1203  166.7630 C.3     1  UNL1        0.0307
     22 C         140.0985  140.2262  168.1256 C.ar    1  UNL1       -0.0258
     23 C         139.2310  140.1797  169.3484 C.ar    1  UNL1       -0.0046
     24 C         139.8493  140.2855  170.7109 C.ar    1  UNL1       -0.0003
     25 C         141.3350  140.4378  170.8506 C.ar    1  UNL1       -0.0003
     26 C         142.2024  140.4843  169.6278 C.ar    1  UNL1       -0.0046
     27 C         141.5842  140.3785  168.2653 C.ar    1  UNL1       -0.0264
@<TRIPOS>BOND
     1    21    22    1
     2    22    23   ar
     3    23    24   ar
     4    24    25   ar
     5    25    26   ar
     6    26    27   ar
     7    27    15    1
     8    15    16    1
     9    16    17    1
    10    17    18    1
    11    18     1    1
    12     2     1    1
    13     2     3    1
    14     3     4    1
    15     4     5    1
    16     5     6   ar
    17     6     7   ar
    18     7     8   ar
    19     8     9   ar
    20     9    10   ar
    21    10    11    1
    22    11    12    1
    23    11    13    1
    24    18    19    1
    25    19    20    1
    26    27    22   ar
    27    20    15    1
    28    13     2    1
    29    10     5   ar
    30    12    14    1
