@<TRIPOS>MOLECULE
*****
 23 25 0 0 0
SMALL
GASTEIGER

@<TRIPOS>ATOM
      1 C         137.8935  140.8344  162.7893 C.2     1  UNL1        0.2587
      2 O         136.9812  142.0074  162.5840 O.2     1  UNL1       -0.2692
      3 N         138.8639  140.8302  163.9331 N.am    1  UNL1       -0.2041
      4 C         138.8406  142.0463  164.8108 C.2     1  UNL1        0.2366
      5 O         137.8501  143.1059  164.4287 O.2     1  UNL1       -0.2741
      6 C         139.6769  142.3430  166.0202 C.3     1  UNL1        0.1015
      7 C         140.7431  141.4968  166.6506 C.3     1  UNL1        0.0832
      8 S         141.2361  140.1449  166.2271 S.3     1  UNL1       -0.1083
      9 C         140.7849  139.3053  165.0689 C.ar    1  UNL1        0.0396
     10 C         141.5421  138.0122  165.0015 C.ar    1  UNL1        0.0074
     11 C         141.2436  137.0242  163.9131 C.ar    1  UNL1        0.0006
     12 C         140.1878  137.3291  162.8922 C.ar    1  UNL1        0.0013
     13 C         139.4306  138.6222  162.9596 C.ar    1  UNL1        0.0158
     14 C         139.7291  139.6103  164.0479 C.ar    1  UNL1        0.0666
     15 C         141.4034  142.0794  167.8648 C.ar    1  UNL1       -0.0115
     16 C         142.8505  141.7964  168.1402 C.ar    1  UNL1       -0.0011
     17 C         143.5108  142.3791  169.3544 C.ar    1  UNL1        0.0293
     18 C         142.7240  143.2449  170.2933 C.ar    1  UNL1        0.1401
     19 F         143.3843  143.8276  171.5075 F       1  UNL1       -0.2042
     20 C         141.2769  143.5279  170.0179 C.ar    1  UNL1        0.0293
     21 C         140.6166  142.9452  168.8036 C.ar    1  UNL1       -0.0011
     22 C         137.4373  139.8726  160.4193 C.2     1  UNL1        0.0048
     23 C         137.8353  139.6658  161.8507 C.2     1  UNL1        0.0587
@<TRIPOS>BOND
     1    22    23    2
     2    23     1    1
     3     1     2    2
     4     1     3   am
     5     3     4   am
     6     4     5    2
     7     4     6    1
     8     6     7    1
     9     7    15    1
    10    15    16   ar
    11    16    17   ar
    12    17    18   ar
    13    18    19    1
    14    18    20   ar
    15    20    21   ar
    16     7     8    1
    17     8     9    1
    18     9    10   ar
    19    10    11   ar
    20    11    12   ar
    21    12    13   ar
    22    13    14   ar
    23    14     3    1
    24    21    15   ar
    25    14     9   ar
@<TRIPOS>MOLECULE
*****
 23 25 0 0 0
SMALL
GASTEIGER

@<TRIPOS>ATOM
      1 C         142.1079  138.0065  162.9282 C.2     1  UNL1        0.2587
      2 O         141.1165  136.8817  162.8823 O.2     1  UNL1       -0.2692
      3 N         142.0412  139.0205  164.0314 N.am    1  UNL1       -0.2041
      4 C         140.9461  138.8179  165.0363 C.2     1  UNL1        0.2366
      5 O         140.0626  137.6280  164.8050 O.2     1  UNL1       -0.2741
      6 C         140.6178  139.6478  166.2418 C.3     1  UNL1        0.1015
      7 C         141.3034  140.8854  166.7403 C.3     1  UNL1        0.0832
      8 S         142.4867  141.5986  166.1563 S.3     1  UNL1       -0.1083
      9 C         143.2767  141.2505  164.9296 C.ar    1  UNL1        0.0396
     10 C         144.3877  142.2309  164.6967 C.ar    1  UNL1        0.0074
     11 C         145.3005  142.0640  163.5182 C.ar    1  UNL1        0.0006
     12 C         145.1022  140.9166  162.5726 C.ar    1  UNL1        0.0013
     13 C         143.9912  139.9362  162.8054 C.ar    1  UNL1        0.0158
     14 C         143.0784  140.1031  163.9839 C.ar    1  UNL1        0.0666
     15 C         140.7299  141.4896  167.9877 C.ar    1  UNL1       -0.0115
     16 C         139.8668  140.6621  168.8936 C.ar    1  UNL1       -0.0011
     17 C         139.2933  141.2663  170.1410 C.ar    1  UNL1        0.0293
     18 C         139.5828  142.6979  170.4825 C.ar    1  UNL1        0.1401
     19 F         139.0093  143.3021  171.7299 F       1  UNL1       -0.2042
     20 C         140.4458  143.5254  169.5767 C.ar    1  UNL1        0.0293
     21 C         141.0193  142.9212  168.3292 C.ar    1  UNL1       -0.0011
     22 C         142.9138  137.5697  160.4971 C.2     1  UNL1        0.0048
     23 C         143.1661  138.1171  161.8707 C.2     1  UNL1        0.0587
@<TRIPOS>BOND
     1    22    23    2
     2    23     1    1
     3     1     2    2
     4     1     3   am
     5     3     4   am
     6     4     5    2
     7     4     6    1
     8     6     7    1
     9     7    15    1
    10    15    16   ar
    11    16    17   ar
    12    17    18   ar
    13    18    19    1
    14    18    20   ar
    15    20    21   ar
    16     7     8    1
    17     8     9    1
    18     9    10   ar
    19    10    11   ar
    20    11    12   ar
    21    12    13   ar
    22    13    14   ar
    23    14     3    1
    24    21    15   ar
    25    14     9   ar
@<TRIPOS>MOLECULE
*****
 23 25 0 0 0
SMALL
GASTEIGER

@<TRIPOS>ATOM
      1 C         140.2207  144.8420  162.1275 C.2     1  UNL1        0.2587
      2 O         138.8474  145.4445  162.0907 O.2     1  UNL1       -0.2692
      3 N         140.6873  144.1132  163.3527 N.am    1  UNL1       -0.2041
      4 C         139.7039  144.0447  164.4833 C.2     1  UNL1        0.2366
      5 O         138.3840  144.7140  164.2392 O.2     1  UNL1       -0.2741
      6 C         139.8661  143.3953  165.8257 C.3     1  UNL1        0.1015
      7 C         141.0516  142.6541  166.3691 C.3     1  UNL1        0.0832
      8 S         142.3677  142.3792  165.7041 S.3     1  UNL1       -0.1083
      9 C         142.8236  142.7776  164.3317 C.ar    1  UNL1        0.0396
     10 C         144.2188  142.3001  164.0575 C.ar    1  UNL1        0.0074
     11 C         144.8662  142.5943  162.7368 C.ar    1  UNL1        0.0006
     12 C         144.1183  143.3659  161.6903 C.ar    1  UNL1        0.0013
     13 C         142.7231  143.8435  161.9645 C.ar    1  UNL1        0.0158
     14 C         142.0757  143.5493  163.2852 C.ar    1  UNL1        0.0666
     15 C         140.9010  142.1168  167.7613 C.ar    1  UNL1       -0.0115
     16 C         140.4749  143.0273  168.8747 C.ar    1  UNL1       -0.0011
     17 C         140.3243  142.4899  170.2670 C.ar    1  UNL1        0.0293
     18 C         140.5998  141.0421  170.5460 C.ar    1  UNL1        0.1401
     19 F         140.4492  140.5048  171.9383 F       1  UNL1       -0.2042
     20 C         141.0258  140.1315  169.4327 C.ar    1  UNL1        0.0293
     21 C         141.1764  140.6689  168.0404 C.ar    1  UNL1       -0.0011
     22 C         140.5726  145.4064  159.6160 C.2     1  UNL1        0.0048
     23 C         141.1272  144.9683  160.9390 C.2     1  UNL1        0.0587
@<TRIPOS>BOND
     1    22    23    2
     2    23     1    1
     3     1     2    2
     4     1     3   am
     5     3     4   am
     6     4     5    2
     7     4     6    1
     8     6     7    1
     9     7    15    1
    10    15    16   ar
    11    16    17   ar
    12    17    18   ar
    13    18    19    1
    14    18    20   ar
    15    20    21   ar
    16     7     8    1
    17     8     9    1
    18     9    10   ar
    19    10    11   ar
    20    11    12   ar
    21    12    13   ar
    22    13    14   ar
    23    14     3    1
    24    21    15   ar
    25    14     9   ar
@<TRIPOS>MOLECULE
*****
 23 25 0 0 0
SMALL
GASTEIGER

@<TRIPOS>ATOM
      1 C         138.7950  142.8160  161.4549 C.2     1  UNL1        0.2587
      2 O         138.8995  144.3019  161.2780 O.2     1  UNL1       -0.2692
      3 N         139.0392  142.2020  162.8016 N.am    1  UNL1       -0.2041
      4 C         139.3808  143.1621  163.9022 C.2     1  UNL1        0.2366
      5 O         139.4331  144.6091  163.5108 O.2     1  UNL1       -0.2741
      6 C         139.6771  142.8664  165.3427 C.3     1  UNL1        0.1015
      7 C         139.7049  141.5376  166.0382 C.3     1  UNL1        0.0832
      8 S         139.4433  140.1764  165.4649 S.3     1  UNL1       -0.1083
      9 C         139.0893  139.8077  164.0546 C.ar    1  UNL1        0.0396
     10 C         138.9113  138.3260  163.9038 C.ar    1  UNL1        0.0074
     11 C         138.5535  137.7457  162.5677 C.ar    1  UNL1        0.0006
     12 C         138.3737  138.6472  161.3824 C.ar    1  UNL1        0.0013
     13 C         138.5516  140.1289  161.5332 C.ar    1  UNL1        0.0158
     14 C         138.9095  140.7092  162.8693 C.ar    1  UNL1        0.0666
     15 C         140.0384  141.5751  167.5001 C.ar    1  UNL1       -0.0115
     16 C         139.8310  140.3553  168.3481 C.ar    1  UNL1       -0.0011
     17 C         140.1645  140.3928  169.8101 C.ar    1  UNL1        0.0293
     18 C         140.7054  141.6500  170.4241 C.ar    1  UNL1        0.1401
     19 F         141.0389  141.6874  171.8860 F       1  UNL1       -0.2042
     20 C         140.9128  142.8698  169.5760 C.ar    1  UNL1        0.0293
     21 C         140.5793  142.8323  168.1140 C.ar    1  UNL1       -0.0011
     22 C         138.4825  142.5052  158.8945 C.2     1  UNL1        0.0048
     23 C         138.4464  141.9441  160.2851 C.2     1  UNL1        0.0587
@<TRIPOS>BOND
     1    22    23    2
     2    23     1    1
     3     1     2    2
     4     1     3   am
     5     3     4   am
     6     4     5    2
     7     4     6    1
     8     6     7    1
     9     7    15    1
    10    15    16   ar
    11    16    17   ar
    12    17    18   ar
    13    18    19    1
    14    18    20   ar
    15    20    21   ar
    16     7     8    1
    17     8     9    1
    18     9    10   ar
    19    10    11   ar
    20    11    12   ar
    21    12    13   ar
    22    13    14   ar
    23    14     3    1
    24    21    15   ar
    25    14     9   ar
@<TRIPOS>MOLECULE
*****
 23 25 0 0 0
SMALL
GASTEIGER

@<TRIPOS>ATOM
      1 C         142.1111  143.7901  161.6938 C.2     1  UNL1        0.2587
      2 O         143.5223  144.1050  161.2946 O.2     1  UNL1       -0.2692
      3 N         141.8284  143.1892  163.0389 N.am    1  UNL1       -0.2041
      4 C         143.0269  142.9436  163.9067 C.2     1  UNL1        0.2366
      5 O         144.3495  143.3313  163.3149 O.2     1  UNL1       -0.2741
      6 C         143.0776  142.3615  165.2883 C.3     1  UNL1        0.1015
      7 C         141.9424  141.8813  166.1431 C.3     1  UNL1        0.0832
      8 S         140.4761  141.8646  165.8275 S.3     1  UNL1       -0.1083
      9 C         139.7828  142.3240  164.5791 C.ar    1  UNL1        0.0396
     10 C         138.2983  142.1309  164.6740 C.ar    1  UNL1        0.0074
     11 C         137.4157  142.5273  163.5278 C.ar    1  UNL1        0.0006
     12 C         138.0176  143.1168  162.2867 C.ar    1  UNL1        0.0013
     13 C         139.5020  143.3099  162.1918 C.ar    1  UNL1        0.0158
     14 C         140.3846  142.9135  163.3380 C.ar    1  UNL1        0.0666
     15 C         142.3239  141.3472  167.4919 C.ar    1  UNL1       -0.0115
     16 C         142.0111  139.9248  167.8512 C.ar    1  UNL1       -0.0011
     17 C         142.3927  139.3908  169.2000 C.ar    1  UNL1        0.0293
     18 C         143.0870  140.2790  170.1894 C.ar    1  UNL1        0.1401
     19 F         143.4685  139.7449  171.5381 F       1  UNL1       -0.2042
     20 C         143.3998  141.7014  169.8301 C.ar    1  UNL1        0.0293
     21 C         143.0182  142.2355  168.4813 C.ar    1  UNL1       -0.0011
     22 C         141.2655  144.6744  159.4019 C.2     1  UNL1        0.0048
     23 C         140.9825  144.0761  160.7479 C.2     1  UNL1        0.0587
@<TRIPOS>BOND
     1    22    23    2
     2    23     1    1
     3     1     2    2
     4     1     3   am
     5     3     4   am
     6     4     5    2
     7     4     6    1
     8     6     7    1
     9     7    15    1
    10    15    16   ar
    11    16    17   ar
    12    17    18   ar
    13    18    19    1
    14    18    20   ar
    15    20    21   ar
    16     7     8    1
    17     8     9    1
    18     9    10   ar
    19    10    11   ar
    20    11    12   ar
    21    12    13   ar
    22    13    14   ar
    23    14     3    1
    24    21    15   ar
    25    14     9   ar
@<TRIPOS>MOLECULE
*****
 23 25 0 0 0
SMALL
GASTEIGER

@<TRIPOS>ATOM
      1 C         142.7166  138.4221  162.1677 C.2     1  UNL1        0.2587
      2 O         144.1759  138.1866  162.4231 O.2     1  UNL1       -0.2692
      3 N         141.8639  139.0608  163.2237 N.am    1  UNL1       -0.2041
      4 C         142.5686  139.4250  164.4968 C.2     1  UNL1        0.2366
      5 O         144.0326  139.1025  164.5456 O.2     1  UNL1       -0.2741
      6 C         142.0026  140.0692  165.7276 C.3     1  UNL1        0.1015
      7 C         140.5923  140.5082  165.9893 C.3     1  UNL1        0.0832
      8 S         139.3997  140.4114  165.0847 S.3     1  UNL1       -0.1083
      9 C         139.3227  139.8518  163.6951 C.ar    1  UNL1        0.0396
     10 C         137.9317  139.9475  163.1420 C.ar    1  UNL1        0.0074
     11 C         137.6374  139.4422  161.7607 C.ar    1  UNL1        0.0006
     12 C         138.7341  138.8412  160.9325 C.ar    1  UNL1        0.0013
     13 C         140.1251  138.7454  161.4856 C.ar    1  UNL1        0.0158
     14 C         140.4194  139.2507  162.8669 C.ar    1  UNL1        0.0666
     15 C         140.3416  141.1255  167.3331 C.ar    1  UNL1       -0.0115
     16 C         139.7346  140.3062  168.4333 C.ar    1  UNL1       -0.0011
     17 C         139.4839  140.9236  169.7772 C.ar    1  UNL1        0.0293
     18 C         139.8400  142.3602  170.0208 C.ar    1  UNL1        0.1401
     19 F         139.5893  142.9776  171.3647 F       1  UNL1       -0.2042
     20 C         140.4470  143.1795  168.9206 C.ar    1  UNL1        0.0293
     21 C         140.6977  142.5621  167.5767 C.ar    1  UNL1       -0.0011
     22 C         142.9950  137.6578  159.7002 C.2     1  UNL1        0.0048
     23 C         142.1101  138.0190  160.8563 C.2     1  UNL1        0.0587
@<TRIPOS>BOND
     1    22    23    2
     2    23     1    1
     3     1     2    2
     4     1     3   am
     5     3     4   am
     6     4     5    2
     7     4     6    1
     8     6     7    1
     9     7    15    1
    10    15    16   ar
    11    16    17   ar
    12    17    18   ar
    13    18    19    1
    14    18    20   ar
    15    20    21   ar
    16     7     8    1
    17     8     9    1
    18     9    10   ar
    19    10    11   ar
    20    11    12   ar
    21    12    13   ar
    22    13    14   ar
    23    14     3    1
    24    21    15   ar
    25    14     9   ar
@<TRIPOS>MOLECULE
*****
 23 25 0 0 0
SMALL
GASTEIGER

@<TRIPOS>ATOM
      1 C         142.9085  139.0102  168.2981 C.2     1  UNL1        0.2587
      2 O         143.7002  138.0294  167.4849 O.2     1  UNL1       -0.2692
      3 N         142.2978  140.2111  167.6386 N.am    1  UNL1       -0.2041
      4 C         142.5388  140.3364  166.1634 C.2     1  UNL1        0.2366
      5 O         143.3586  139.2443  165.5428 O.2     1  UNL1       -0.2741
      6 C         142.0683  141.4094  165.2268 C.3     1  UNL1        0.1015
      7 C         141.2407  142.6222  165.5340 C.3     1  UNL1        0.0832
      8 S         140.6792  143.0613  166.8538 S.3     1  UNL1       -0.1083
      9 C         140.8065  142.3963  168.1923 C.ar    1  UNL1        0.0396
     10 C         140.0899  143.1700  169.2590 C.ar    1  UNL1        0.0074
     11 C         140.0937  142.6751  170.6750 C.ar    1  UNL1        0.0006
     12 C         140.8140  141.4066  171.0243 C.ar    1  UNL1        0.0013
     13 C         141.5306  140.6330  169.9576 C.ar    1  UNL1        0.0158
     14 C         141.5269  141.1278  168.5416 C.ar    1  UNL1        0.0666
     15 C         140.9341  143.5135  164.3672 C.ar    1  UNL1       -0.0115
     16 C         139.6075  144.2087  164.2827 C.ar    1  UNL1       -0.0011
     17 C         139.3009  145.1000  163.1158 C.ar    1  UNL1        0.0293
     18 C         140.3209  145.2963  162.0336 C.ar    1  UNL1        0.1401
     19 F         140.0143  146.1876  160.8668 F       1  UNL1       -0.2042
     20 C         141.6474  144.6012  162.1181 C.ar    1  UNL1        0.0293
     21 C         141.9540  143.7098  163.2850 C.ar    1  UNL1       -0.0011
     22 C         143.3143  137.5745  170.4251 C.2     1  UNL1        0.0048
     23 C         142.7276  138.7901  169.7709 C.2     1  UNL1        0.0587
@<TRIPOS>BOND
     1    22    23    2
     2    23     1    1
     3     1     2    2
     4     1     3   am
     5     3     4   am
     6     4     5    2
     7     4     6    1
     8     6     7    1
     9     7    15    1
    10    15    16   ar
    11    16    17   ar
    12    17    18   ar
    13    18    19    1
    14    18    20   ar
    15    20    21   ar
    16     7     8    1
    17     8     9    1
    18     9    10   ar
    19    10    11   ar
    20    11    12   ar
    21    12    13   ar
    22    13    14   ar
    23    14     3    1
    24    21    15   ar
    25    14     9   ar
@<TRIPOS>MOLECULE
*****
 23 25 0 0 0
SMALL
GASTEIGER

@<TRIPOS>ATOM
      1 C         139.3931  140.0101  168.3135 C.2     1  UNL1        0.2587
      2 O         138.1705  139.2544  168.7426 O.2     1  UNL1       -0.2692
      3 N         139.6611  140.2370  166.8551 N.am    1  UNL1       -0.2041
      4 C         138.6449  139.6672  165.9104 C.2     1  UNL1        0.2366
      5 O         137.4951  138.9459  166.5487 O.2     1  UNL1       -0.2741
      6 C         138.6266  139.7234  164.4115 C.3     1  UNL1        0.1015
      7 C         139.6198  140.3633  163.4873 C.3     1  UNL1        0.0832
      8 S         140.8768  141.1049  163.8338 S.3     1  UNL1       -0.1083
      9 C         141.4509  141.3900  165.1899 C.ar    1  UNL1        0.0396
     10 C         142.7310  142.1655  165.0911 C.ar    1  UNL1        0.0074
     11 C         143.4701  142.5549  166.3369 C.ar    1  UNL1        0.0006
     12 C         142.9291  142.1686  167.6816 C.ar    1  UNL1        0.0013
     13 C         141.6490  141.3930  167.7804 C.ar    1  UNL1        0.0158
     14 C         140.9099  141.0037  166.5346 C.ar    1  UNL1        0.0666
     15 C         139.3160  140.2459  162.0231 C.ar    1  UNL1       -0.0115
     16 C         137.9005  140.0571  161.5637 C.ar    1  UNL1       -0.0011
     17 C         137.5967  139.9397  160.0994 C.ar    1  UNL1        0.0293
     18 C         138.7082  140.0112  159.0947 C.ar    1  UNL1        0.1401
     19 F         138.4043  139.8938  157.6306 F       1  UNL1       -0.2042
     20 C         140.1236  140.2000  159.5542 C.ar    1  UNL1        0.0293
     21 C         140.4274  140.3173  161.0184 C.ar    1  UNL1       -0.0011
     22 C         140.2653  140.0559  170.7604 C.2     1  UNL1        0.0048
     23 C         140.3477  140.5390  169.3427 C.2     1  UNL1        0.0587
@<TRIPOS>BOND
     1    22    23    2
     2    23     1    1
     3     1     2    2
     4     1     3   am
     5     3     4   am
     6     4     5    2
     7     4     6    1
     8     6     7    1
     9     7    15    1
    10    15    16   ar
    11    16    17   ar
    12    17    18   ar
    13    18    19    1
    14    18    20   ar
    15    20    21   ar
    16     7     8    1
    17     8     9    1
    18     9    10   ar
    19    10    11   ar
    20    11    12   ar
    21    12    13   ar
    22    13    14   ar
    23    14     3    1
    24    21    15   ar
    25    14     9   ar
@<TRIPOS>MOLECULE
*****
 23 25 0 0 0
SMALL
GASTEIGER

@<TRIPOS>ATOM
      1 C         138.1493  142.9603  162.7759 C.2     1  UNL1        0.2587
      2 O         138.0462  144.2305  161.9846 O.2     1  UNL1       -0.2692
      3 N         138.7053  141.7220  162.1376 N.am    1  UNL1       -0.2041
      4 C         139.1286  141.8620  160.7054 C.2     1  UNL1        0.2366
      5 O         138.9398  143.2217  160.1009 O.2     1  UNL1       -0.2741
      6 C         139.7156  140.8220  159.7978 C.3     1  UNL1        0.1015
      7 C         140.0244  139.3851  160.0982 C.3     1  UNL1        0.0832
      8 S         139.8224  138.6336  161.3804 S.3     1  UNL1       -0.1083
      9 C         139.2618  139.1330  162.6790 C.ar    1  UNL1        0.0396
     10 C         139.2326  138.0497  163.7161 C.ar    1  UNL1        0.0074
     11 C         138.7064  138.3410  165.0902 C.ar    1  UNL1        0.0006
     12 C         138.2092  139.7155  165.4272 C.ar    1  UNL1        0.0013
     13 C         138.2383  140.7988  164.3901 C.ar    1  UNL1        0.0158
     14 C         138.7646  140.5075  163.0160 C.ar    1  UNL1        0.0666
     15 C         140.6130  138.5956  158.9668 C.ar    1  UNL1       -0.0115
     16 C         142.0731  138.2516  158.9721 C.ar    1  UNL1       -0.0011
     17 C         142.6617  137.4621  157.8406 C.ar    1  UNL1        0.0293
     18 C         141.7903  137.0166  156.7039 C.ar    1  UNL1        0.1401
     19 F         142.3789  136.2271  155.5725 F       1  UNL1       -0.2042
     20 C         140.3302  137.3606  156.6985 C.ar    1  UNL1        0.0293
     21 C         139.7417  138.1502  157.8300 C.ar    1  UNL1       -0.0011
     22 C         137.7017  144.1868  165.0221 C.2     1  UNL1        0.0048
     23 C         137.6963  142.9285  164.2056 C.2     1  UNL1        0.0587
@<TRIPOS>BOND
     1    22    23    2
     2    23     1    1
     3     1     2    2
     4     1     3   am
     5     3     4   am
     6     4     5    2
     7     4     6    1
     8     6     7    1
     9     7    15    1
    10    15    16   ar
    11    16    17   ar
    12    17    18   ar
    13    18    19    1
    14    18    20   ar
    15    20    21   ar
    16     7     8    1
    17     8     9    1
    18     9    10   ar
    19    10    11   ar
    20    11    12   ar
    21    12    13   ar
    22    13    14   ar
    23    14     3    1
    24    21    15   ar
    25    14     9   ar
