@<TRIPOS>MOLECULE
*****
 39 45 0 0 0
SMALL
GASTEIGER

@<TRIPOS>ATOM
      1 C         137.7594  139.6612  161.9921 C.3     1  UNL1        0.0700
      2 C         137.7470  140.7966  162.9722 C.3     1  UNL1        0.0193
      3 C         138.3508  140.6187  164.3338 C.3     1  UNL1        0.0287
      4 C         138.9672  139.3053  164.7151 C.3     1  UNL1        0.0958
      5 C         138.9796  138.1699  163.7349 C.3     1  UNL1        0.0287
      6 C         138.3758  138.3479  162.3734 C.3     1  UNL1        0.0193
      7 O         138.6485  139.3553  163.9575 O.3     1  UNL1       -0.3571
      8 C         138.1025  139.5161  162.7265 C.3     1  UNL1        0.1562
      9 N         137.1556  139.8391  160.6305 N.3     1  UNL1       -0.2926
     10 H         136.8275  138.9207  160.3316 H       1  UNL1        0.1236
     11 C         137.9852  140.3889  159.5083 C.3     1  UNL1        0.1152
     12 O         141.6346  135.1045  155.0915 O.2     1  UNL1       -0.2707
     13 C         141.6788  136.1661  156.1504 C.2     1  UNL1        0.2718
     14 C         142.9836  136.5277  156.7957 C.3     1  UNL1        0.2898
     15 O         143.0279  137.5894  157.8546 O.3     1  UNL1       -0.4628
     16 C         141.7672  138.2892  158.2680 C.ar    1  UNL1        0.1708
     17 C         141.8113  139.3508  159.3268 C.ar    1  UNL1        0.0411
     18 C         140.5507  140.0507  159.7402 C.ar    1  UNL1        0.0193
     19 C         139.2458  139.6890  159.0948 C.ar    1  UNL1        0.0765
     20 N         139.2017  138.6274  158.0360 N.ar    1  UNL1       -0.2304
     21 C         140.4624  137.9275  157.6226 C.ar    1  UNL1        0.1682
     22 N         140.4181  136.8660  156.5638 N.am    1  UNL1       -0.2639
     23 H         139.5617  136.6286  156.1402 H       1  UNL1        0.1565
     24 C         139.5710  139.1274  166.0766 C.3     1  UNL1        0.0661
     25 C         140.6857  140.0250  166.5259 C.3     1  UNL1        0.1790
     26 F         141.2449  139.7516  165.1611 F       1  UNL1       -0.2333
     27 C         141.9172  140.8654  166.6898 C.3     1  UNL1        0.1459
     28 N         141.8862  141.4706  168.0619 N.ar    1  UNL1       -0.2912
     29 C         142.8352  142.3862  168.7768 C.ar    1  UNL1        0.2611
     30 O         144.0860  142.8526  168.0927 O.2     1  UNL1       -0.2670
     31 C         142.5335  142.8353  170.1758 C.ar    1  UNL1        0.0623
     32 C         141.2827  142.3689  170.8599 C.ar    1  UNL1        0.0254
     33 C         140.3337  141.4533  170.1450 C.ar    1  UNL1        0.0972
     34 N         139.0277  140.8373  170.5757 N.ar    1  UNL1       -0.2400
     35 C         138.1776  139.9278  169.7390 C.ar    1  UNL1        0.1282
     36 C         138.6104  139.5646  168.3495 C.ar    1  UNL1        0.1591
     37 F         137.7603  138.6551  167.5128 F       1  UNL1       -0.2027
     38 C         139.8935  140.1108  167.7967 C.ar    1  UNL1        0.0553
     39 C         140.6354  141.0042  168.7461 C.ar    1  UNL1        0.0809
@<TRIPOS>BOND
     1    12    13    2
     2    13    14    1
     3    14    15    1
     4    15    16    1
     5    16    17   ar
     6    17    18   ar
     7    18    19   ar
     8    19    11    1
     9    11     9    1
    10     9     1    1
    11     1     2    1
    12     2     3    1
    13     3     4    1
    14     4    24    1
    15    24    25    1
    16    25    26    1
    17    25    27    1
    18    27    28    1
    19    28    29   ar
    20    29    30    2
    21    29    31   ar
    22    31    32   ar
    23    32    33   ar
    24    33    34   ar
    25    34    35   ar
    26    35    36   ar
    27    36    37    1
    28    36    38   ar
    29    38    39   ar
    30     4     5    1
    31     5     6    1
    32     4     7    1
    33     7     8    1
    34    19    20   ar
    35    20    21   ar
    36    21    22    1
    37    22    13   am
    38    21    16   ar
    39     6     1    1
    40     8     1    1
    41    38    25    1
    42    39    28   ar
    43    39    33   ar
    44     9    10    1
    45    22    23    1
@<TRIPOS>MOLECULE
*****
 39 45 0 0 0
SMALL
GASTEIGER

@<TRIPOS>ATOM
      1 C         137.7288  139.5671  162.0399 C.3     1  UNL1        0.0700
      2 C         137.6338  140.6905  163.0292 C.3     1  UNL1        0.0193
      3 C         138.2423  140.5430  164.3923 C.3     1  UNL1        0.0287
      4 C         138.9458  139.2719  164.7660 C.3     1  UNL1        0.0958
      5 C         139.0408  138.1485  163.7767 C.3     1  UNL1        0.0287
      6 C         138.4323  138.2961  162.4136 C.3     1  UNL1        0.0193
      7 O         138.6279  139.3063  164.0073 O.3     1  UNL1       -0.3571
      8 C         138.0777  139.4397  162.7748 C.3     1  UNL1        0.1562
      9 N         137.1203  139.7147  160.6768 N.3     1  UNL1       -0.2926
     10 H         136.7960  138.7889  160.3973 H       1  UNL1        0.1236
     11 C         137.9440  140.2459  159.5414 C.3     1  UNL1        0.1152
     12 O         143.8103  144.6385  162.1953 O.2     1  UNL1       -0.2707
     13 C         143.3257  143.4039  161.4944 C.2     1  UNL1        0.2718
     14 C         144.3121  142.3992  160.9772 C.3     1  UNL1        0.2898
     15 O         143.8276  141.1647  160.2763 O.3     1  UNL1       -0.4628
     16 C         142.3567  140.9350  160.0926 C.ar    1  UNL1        0.1708
     17 C         141.8722  139.7005  159.3916 C.ar    1  UNL1        0.0411
     18 C         140.4013  139.4709  159.2079 C.ar    1  UNL1        0.0193
     19 C         139.4149  140.4756  159.7251 C.ar    1  UNL1        0.0765
     20 N         139.8995  141.7101  160.4260 N.ar    1  UNL1       -0.2304
     21 C         141.3704  141.9398  160.6097 C.ar    1  UNL1        0.1682
     22 N         141.8548  143.1743  161.3107 N.am    1  UNL1       -0.2639
     23 H         141.2074  143.8337  161.6501 H       1  UNL1        0.1565
     24 C         139.5543  139.1243  166.1291 C.3     1  UNL1        0.0661
     25 C         140.6801  140.0222  166.5491 C.3     1  UNL1        0.1790
     26 F         141.2167  139.7280  165.1796 F       1  UNL1       -0.2333
     27 C         141.9181  140.8585  166.6828 C.3     1  UNL1        0.1459
     28 N         141.9113  141.4819  168.0471 N.ar    1  UNL1       -0.2912
     29 C         142.8758  142.4019  168.7350 C.ar    1  UNL1        0.2611
     30 O         144.1180  142.8530  168.0255 O.2     1  UNL1       -0.2670
     31 C         142.5980  142.8709  170.1325 C.ar    1  UNL1        0.0623
     32 C         141.3558  142.4198  170.8420 C.ar    1  UNL1        0.0254
     33 C         140.3914  141.4998  170.1541 C.ar    1  UNL1        0.0972
     34 N         139.0894  140.8960  170.6130 N.ar    1  UNL1       -0.2400
     35 C         138.2219  139.9799  169.8017 C.ar    1  UNL1        0.1282
     36 C         138.6313  139.5962  168.4106 C.ar    1  UNL1        0.1591
     37 F         137.7639  138.6801  167.5993 F       1  UNL1       -0.2027
     38 C         139.9082  140.1286  167.8308 C.ar    1  UNL1        0.0553
     39 C         140.6691  141.0308  168.7567 C.ar    1  UNL1        0.0809
@<TRIPOS>BOND
     1    12    13    2
     2    13    14    1
     3    14    15    1
     4    15    16    1
     5    16    17   ar
     6    17    18   ar
     7    18    19   ar
     8    19    11    1
     9    11     9    1
    10     9     1    1
    11     1     2    1
    12     2     3    1
    13     3     4    1
    14     4    24    1
    15    24    25    1
    16    25    26    1
    17    25    27    1
    18    27    28    1
    19    28    29   ar
    20    29    30    2
    21    29    31   ar
    22    31    32   ar
    23    32    33   ar
    24    33    34   ar
    25    34    35   ar
    26    35    36   ar
    27    36    37    1
    28    36    38   ar
    29    38    39   ar
    30     4     5    1
    31     5     6    1
    32     4     7    1
    33     7     8    1
    34    19    20   ar
    35    20    21   ar
    36    21    22    1
    37    22    13   am
    38    21    16   ar
    39     6     1    1
    40     8     1    1
    41    38    25    1
    42    39    28   ar
    43    39    33   ar
    44     9    10    1
    45    22    23    1
@<TRIPOS>MOLECULE
*****
 39 45 0 0 0
SMALL
GASTEIGER

@<TRIPOS>ATOM
      1 C         138.1334  139.6529  161.0091 C.3     1  UNL1        0.0700
      2 C         138.6307  138.2793  161.3495 C.3     1  UNL1        0.0193
      3 C         139.4086  138.0548  162.6122 C.3     1  UNL1        0.0287
      4 C         139.6894  139.2040  163.5345 C.3     1  UNL1        0.0958
      5 C         139.1921  140.5776  163.1941 C.3     1  UNL1        0.0287
      6 C         138.4142  140.8020  161.9314 C.3     1  UNL1        0.0193
      7 O         139.2589  139.3759  162.8540 O.3     1  UNL1       -0.3571
      8 C         138.5555  139.5789  161.7123 C.3     1  UNL1        0.1562
      9 N         137.3555  139.8774  159.7464 N.3     1  UNL1       -0.2926
     10 H         136.8799  139.0005  159.5337 H       1  UNL1        0.1236
     11 C         138.0644  140.3004  158.4940 C.3     1  UNL1        0.1152
     12 O         142.0383  134.4339  155.2470 O.2     1  UNL1       -0.2707
     13 C         142.0210  135.7553  155.9569 C.2     1  UNL1        0.2718
     14 C         143.3109  136.4423  156.2941 C.3     1  UNL1        0.2898
     15 O         143.2937  137.7637  157.0040 O.3     1  UNL1       -0.4628
     16 C         141.9863  138.3979  157.3765 C.ar    1  UNL1        0.1708
     17 C         141.9690  139.7192  158.0863 C.ar    1  UNL1        0.0411
     18 C         140.6616  140.3533  158.4588 C.ar    1  UNL1        0.0193
     19 C         139.3717  139.6662  158.1215 C.ar    1  UNL1        0.0765
     20 N         139.3890  138.3449  157.4117 N.ar    1  UNL1       -0.2304
     21 C         140.6964  137.7107  157.0392 C.ar    1  UNL1        0.1682
     22 N         140.7136  136.3894  156.3294 N.am    1  UNL1       -0.2639
     23 H         139.8670  135.9384  156.1080 H       1  UNL1        0.1565
     24 C         140.4673  138.9795  164.7972 C.3     1  UNL1        0.0661
     25 C         139.8154  139.2028  166.1296 C.3     1  UNL1        0.1790
     26 F         138.8131  138.2050  165.6299 F       1  UNL1       -0.2333
     27 C         138.9540  139.2176  167.3574 C.3     1  UNL1        0.1459
     28 N         139.5602  140.1778  168.3375 N.ar    1  UNL1       -0.2912
     29 C         139.1463  140.6000  169.7160 C.ar    1  UNL1        0.2611
     30 O         137.9101  140.0213  170.3382 O.2     1  UNL1       -0.2670
     31 C         139.9685  141.6009  170.4724 C.ar    1  UNL1        0.0623
     32 C         141.2046  142.1796  169.8502 C.ar    1  UNL1        0.0254
     33 C         141.6185  141.7574  168.4717 C.ar    1  UNL1        0.0972
     34 N         142.7887  142.1636  167.6137 N.ar    1  UNL1       -0.2400
     35 C         143.0761  141.6485  166.2346 C.ar    1  UNL1        0.1282
     36 C         142.1587  140.6436  165.6031 C.ar    1  UNL1        0.1591
     37 F         142.4461  140.1284  164.2240 F       1  UNL1       -0.2027
     38 C         140.9540  140.1540  166.3508 C.ar    1  UNL1        0.0553
     39 C         140.7963  140.7565  167.7153 C.ar    1  UNL1        0.0809
@<TRIPOS>BOND
     1    12    13    2
     2    13    14    1
     3    14    15    1
     4    15    16    1
     5    16    17   ar
     6    17    18   ar
     7    18    19   ar
     8    19    11    1
     9    11     9    1
    10     9     1    1
    11     1     2    1
    12     2     3    1
    13     3     4    1
    14     4    24    1
    15    24    25    1
    16    25    26    1
    17    25    27    1
    18    27    28    1
    19    28    29   ar
    20    29    30    2
    21    29    31   ar
    22    31    32   ar
    23    32    33   ar
    24    33    34   ar
    25    34    35   ar
    26    35    36   ar
    27    36    37    1
    28    36    38   ar
    29    38    39   ar
    30     4     5    1
    31     5     6    1
    32     4     7    1
    33     7     8    1
    34    19    20   ar
    35    20    21   ar
    36    21    22    1
    37    22    13   am
    38    21    16   ar
    39     6     1    1
    40     8     1    1
    41    38    25    1
    42    39    28   ar
    43    39    33   ar
    44     9    10    1
    45    22    23    1
@<TRIPOS>MOLECULE
*****
 39 45 0 0 0
SMALL
GASTEIGER

@<TRIPOS>ATOM
      1 C         142.1578  143.5656  161.4052 C.3     1  UNL1        0.0700
      2 C         141.1268  143.6516  162.4912 C.3     1  UNL1        0.0193
      3 C         141.2577  142.7995  163.7188 C.3     1  UNL1        0.0287
      4 C         142.4197  141.8614  163.8603 C.3     1  UNL1        0.0958
      5 C         143.4507  141.7754  162.7742 C.3     1  UNL1        0.0287
      6 C         143.3197  142.6276  161.5466 C.3     1  UNL1        0.0193
      7 O         142.3905  142.3084  163.1694 O.3     1  UNL1       -0.3571
      8 C         142.2722  143.0788  162.0594 C.3     1  UNL1        0.1562
      9 N         142.0269  144.4176  160.1776 N.3     1  UNL1       -0.2926
     10 H         141.6636  145.3204  160.4832 H       1  UNL1        0.1236
     11 C         141.1610  143.9651  159.0395 C.3     1  UNL1        0.1152
     12 O         137.8548  150.2258  155.7801 O.2     1  UNL1       -0.2707
     13 C         138.7551  149.0303  155.6772 C.2     1  UNL1        0.2718
     14 C         139.4534  148.7264  154.3850 C.3     1  UNL1        0.2898
     15 O         140.3537  147.5310  154.2820 O.3     1  UNL1       -0.4628
     16 C         140.5555  146.6395  155.4714 C.ar    1  UNL1        0.1708
     17 C         141.4557  145.4441  155.3686 C.ar    1  UNL1        0.0411
     18 C         141.6575  144.5527  156.5579 C.ar    1  UNL1        0.0193
     19 C         140.9591  144.8566  157.8502 C.ar    1  UNL1        0.0765
     20 N         140.0589  146.0521  157.9530 N.ar    1  UNL1       -0.2304
     21 C         139.8571  146.9435  156.7636 C.ar    1  UNL1        0.1682
     22 N         138.9569  148.1389  156.8666 N.am    1  UNL1       -0.2639
     23 H         138.4985  148.3384  157.7147 H       1  UNL1        0.1565
     24 C         142.5505  141.0094  165.0878 C.3     1  UNL1        0.0661
     25 C         142.6979  141.6524  166.4349 C.3     1  UNL1        0.1790
     26 F         143.9011  142.3022  165.8186 F       1  UNL1       -0.2333
     27 C         143.0967  142.4313  167.6532 C.3     1  UNL1        0.1459
     28 N         142.1091  142.1285  168.7409 N.ar    1  UNL1       -0.2912
     29 C         141.9984  142.6076  170.1580 C.ar    1  UNL1        0.2611
     30 O         143.0076  143.5737  170.7041 O.2     1  UNL1       -0.2670
     31 C         140.8786  142.1206  171.0290 C.ar    1  UNL1        0.0623
     32 C         139.8694  141.1545  170.4829 C.ar    1  UNL1        0.0254
     33 C         139.9801  140.6754  169.0658 C.ar    1  UNL1        0.0972
     34 N         139.1279  139.7251  168.2652 N.ar    1  UNL1       -0.2400
     35 C         139.3664  139.3363  166.8363 C.ar    1  UNL1        0.1282
     36 C         140.5344  139.9078  166.0885 C.ar    1  UNL1        0.1591
     37 F         140.7730  139.5191  164.6596 F       1  UNL1       -0.2027
     38 C         141.4638  140.8682  166.7697 C.ar    1  UNL1        0.0553
     39 C         141.0999  141.1624  168.1948 C.ar    1  UNL1        0.0809
@<TRIPOS>BOND
     1    12    13    2
     2    13    14    1
     3    14    15    1
     4    15    16    1
     5    16    17   ar
     6    17    18   ar
     7    18    19   ar
     8    19    11    1
     9    11     9    1
    10     9     1    1
    11     1     2    1
    12     2     3    1
    13     3     4    1
    14     4    24    1
    15    24    25    1
    16    25    26    1
    17    25    27    1
    18    27    28    1
    19    28    29   ar
    20    29    30    2
    21    29    31   ar
    22    31    32   ar
    23    32    33   ar
    24    33    34   ar
    25    34    35   ar
    26    35    36   ar
    27    36    37    1
    28    36    38   ar
    29    38    39   ar
    30     4     5    1
    31     5     6    1
    32     4     7    1
    33     7     8    1
    34    19    20   ar
    35    20    21   ar
    36    21    22    1
    37    22    13   am
    38    21    16   ar
    39     6     1    1
    40     8     1    1
    41    38    25    1
    42    39    28   ar
    43    39    33   ar
    44     9    10    1
    45    22    23    1
@<TRIPOS>MOLECULE
*****
 39 45 0 0 0
SMALL
GASTEIGER

@<TRIPOS>ATOM
      1 C         142.4788  138.6435  159.6328 C.3     1  UNL1        0.0700
      2 C         142.5400  137.6858  160.7856 C.3     1  UNL1        0.0193
      3 C         141.8538  138.0213  162.0766 C.3     1  UNL1        0.0287
      4 C         141.1065  139.3146  162.2147 C.3     1  UNL1        0.0958
      5 C         141.0454  140.2723  161.0619 C.3     1  UNL1        0.0287
      6 C         141.7316  139.9367  159.7709 C.3     1  UNL1        0.0193
      7 O         141.4667  139.1745  161.4877 O.3     1  UNL1       -0.3571
      8 C         142.0872  138.8711  160.3204 C.3     1  UNL1        0.1562
      9 N         143.1650  138.3080  158.3418 N.3     1  UNL1       -0.2926
     10 H         143.6607  139.1485  158.0447 H       1  UNL1        0.1236
     11 C         142.3612  137.8405  157.1648 C.3     1  UNL1        0.1152
     12 O         144.9683  130.5765  158.2553 O.2     1  UNL1       -0.2707
     13 C         144.0917  131.5452  157.5180 C.2     1  UNL1        0.2718
     14 C         143.2078  131.0611  156.4071 C.3     1  UNL1        0.2898
     15 O         142.3312  132.0297  155.6698 O.3     1  UNL1       -0.4628
     16 C         142.3388  133.4824  156.0436 C.ar    1  UNL1        0.1708
     17 C         141.4623  134.4510  155.3063 C.ar    1  UNL1        0.0411
     18 C         141.4698  135.9037  155.6801 C.ar    1  UNL1        0.0193
     19 C         142.3538  136.3877  156.7911 C.ar    1  UNL1        0.0765
     20 N         143.2303  135.4191  157.5283 N.ar    1  UNL1       -0.2304
     21 C         143.2227  133.9664  157.1545 C.ar    1  UNL1        0.1682
     22 N         144.0992  132.9979  157.8918 N.am    1  UNL1       -0.2639
     23 H         144.6794  133.3156  158.6209 H       1  UNL1        0.1565
     24 C         140.4204  139.6501  163.5057 C.3     1  UNL1        0.0661
     25 C         141.1693  140.3691  164.5884 C.3     1  UNL1        0.1790
     26 F         142.0934  140.7589  163.4730 F       1  UNL1       -0.2333
     27 C         142.1114  141.1696  165.4379 C.3     1  UNL1        0.1459
     28 N         141.6130  141.1242  166.8519 N.ar    1  UNL1       -0.2912
     29 C         142.1360  141.7303  168.1204 C.ar    1  UNL1        0.2611
     30 O         143.3862  142.5588  168.0960 O.2     1  UNL1       -0.2670
     31 C         141.4088  141.5078  169.4133 C.ar    1  UNL1        0.0623
     32 C         140.1587  140.6793  169.4378 C.ar    1  UNL1        0.0254
     33 C         139.6356  140.0733  168.1693 C.ar    1  UNL1        0.0972
     34 N         138.4282  139.2134  167.8989 N.ar    1  UNL1       -0.2400
     35 C         138.0274  138.6741  166.5579 C.ar    1  UNL1        0.1282
     36 C         138.8576  138.9819  165.3471 C.ar    1  UNL1        0.1591
     37 F         138.4568  138.4426  164.0061 F       1  UNL1       -0.2027
     38 C         140.0886  139.8290  165.4774 C.ar    1  UNL1        0.0553
     39 C         140.3628  140.2957  166.8764 C.ar    1  UNL1        0.0809
@<TRIPOS>BOND
     1    12    13    2
     2    13    14    1
     3    14    15    1
     4    15    16    1
     5    16    17   ar
     6    17    18   ar
     7    18    19   ar
     8    19    11    1
     9    11     9    1
    10     9     1    1
    11     1     2    1
    12     2     3    1
    13     3     4    1
    14     4    24    1
    15    24    25    1
    16    25    26    1
    17    25    27    1
    18    27    28    1
    19    28    29   ar
    20    29    30    2
    21    29    31   ar
    22    31    32   ar
    23    32    33   ar
    24    33    34   ar
    25    34    35   ar
    26    35    36   ar
    27    36    37    1
    28    36    38   ar
    29    38    39   ar
    30     4     5    1
    31     5     6    1
    32     4     7    1
    33     7     8    1
    34    19    20   ar
    35    20    21   ar
    36    21    22    1
    37    22    13   am
    38    21    16   ar
    39     6     1    1
    40     8     1    1
    41    38    25    1
    42    39    28   ar
    43    39    33   ar
    44     9    10    1
    45    22    23    1
@<TRIPOS>MOLECULE
*****
 39 45 0 0 0
SMALL
GASTEIGER

@<TRIPOS>ATOM
      1 C         143.4922  139.6289  160.1151 C.3     1  UNL1        0.0700
      2 C         142.4967  140.5318  160.7812 C.3     1  UNL1        0.0193
      3 C         141.9407  140.1719  162.1271 C.3     1  UNL1        0.0287
      4 C         142.3803  138.9090  162.8069 C.3     1  UNL1        0.0958
      5 C         143.3758  138.0061  162.1408 C.3     1  UNL1        0.0287
      6 C         143.9317  138.3661  160.7949 C.3     1  UNL1        0.0193
      7 O         142.7127  139.0642  162.0697 O.3     1  UNL1       -0.3571
      8 C         143.2154  139.3896  160.8528 C.3     1  UNL1        0.1562
      9 N         144.0482  139.9888  158.7692 N.3     1  UNL1       -0.2926
     10 H         144.3937  140.9459  158.8397 H       1  UNL1        0.1236
     11 C         143.1686  139.9342  157.5555 C.3     1  UNL1        0.1152
     12 O         142.7450  132.1629  157.1334 O.2     1  UNL1       -0.2707
     13 C         142.8154  133.4989  156.4548 C.2     1  UNL1        0.2718
     14 C         142.8151  133.5802  154.9571 C.3     1  UNL1        0.2898
     15 O         142.8856  134.9161  154.2785 O.3     1  UNL1       -0.4628
     16 C         142.9564  136.1706  155.0977 C.ar    1  UNL1        0.1708
     17 C         143.0268  137.5065  154.4192 C.ar    1  UNL1        0.0411
     18 C         143.0976  138.7610  155.2385 C.ar    1  UNL1        0.0193
     19 C         143.0978  138.6796  156.7363 C.ar    1  UNL1        0.0765
     20 N         143.0274  137.3437  157.4148 N.ar    1  UNL1       -0.2304
     21 C         142.9566  136.0892  156.5955 C.ar    1  UNL1        0.1682
     22 N         142.8862  134.7534  157.2741 N.am    1  UNL1       -0.2639
     23 H         142.8864  134.7000  158.2571 H       1  UNL1        0.1565
     24 C         141.8243  138.5491  164.1527 C.3     1  UNL1        0.0661
     25 C         142.2026  139.3544  165.3603 C.3     1  UNL1        0.1790
     26 F         143.5386  139.4478  164.6847 F       1  UNL1       -0.2333
     27 C         142.8602  140.1793  166.4267 C.3     1  UNL1        0.1459
     28 N         141.8516  140.4274  167.5088 N.ar    1  UNL1       -0.2912
     29 C         141.9341  141.1781  168.8048 C.ar    1  UNL1        0.2611
     30 O         143.2151  141.8496  169.2024 O.2     1  UNL1       -0.2670
     31 C         140.7356  141.2572  169.7033 C.ar    1  UNL1        0.0623
     32 C         139.4546  140.5856  169.3058 C.ar    1  UNL1        0.0254
     33 C         139.3721  139.8350  168.0098 C.ar    1  UNL1        0.0972
     34 N         138.2390  139.0784  167.3661 N.ar    1  UNL1       -0.2400
     35 C         138.3066  138.3677  166.0470 C.ar    1  UNL1        0.1282
     36 C         139.5809  138.3748  165.2556 C.ar    1  UNL1        0.1591
     37 F         139.6485  137.6640  163.9365 F       1  UNL1       -0.2027
     38 C         140.7875  139.0928  165.7834 C.ar    1  UNL1        0.0553
     39 C         140.5706  139.7559  167.1113 C.ar    1  UNL1        0.0809
@<TRIPOS>BOND
     1    12    13    2
     2    13    14    1
     3    14    15    1
     4    15    16    1
     5    16    17   ar
     6    17    18   ar
     7    18    19   ar
     8    19    11    1
     9    11     9    1
    10     9     1    1
    11     1     2    1
    12     2     3    1
    13     3     4    1
    14     4    24    1
    15    24    25    1
    16    25    26    1
    17    25    27    1
    18    27    28    1
    19    28    29   ar
    20    29    30    2
    21    29    31   ar
    22    31    32   ar
    23    32    33   ar
    24    33    34   ar
    25    34    35   ar
    26    35    36   ar
    27    36    37    1
    28    36    38   ar
    29    38    39   ar
    30     4     5    1
    31     5     6    1
    32     4     7    1
    33     7     8    1
    34    19    20   ar
    35    20    21   ar
    36    21    22    1
    37    22    13   am
    38    21    16   ar
    39     6     1    1
    40     8     1    1
    41    38    25    1
    42    39    28   ar
    43    39    33   ar
    44     9    10    1
    45    22    23    1
@<TRIPOS>MOLECULE
*****
 39 45 0 0 0
SMALL
GASTEIGER

@<TRIPOS>ATOM
      1 C         139.8755  137.5375  164.1028 C.3     1  UNL1        0.0700
      2 C         141.3297  137.6235  164.4604 C.3     1  UNL1        0.0193
      3 C         142.3361  138.0155  163.4194 C.3     1  UNL1        0.0287
      4 C         141.8882  138.3215  162.0208 C.3     1  UNL1        0.0958
      5 C         140.4340  138.2355  161.6633 C.3     1  UNL1        0.0287
      6 C         139.4276  137.8435  162.7043 C.3     1  UNL1        0.0193
      7 O         141.2999  138.1110  162.5571 O.3     1  UNL1       -0.3571
      8 C         140.3900  137.7566  163.4983 C.3     1  UNL1        0.1562
      9 N         138.8691  137.1456  165.1438 N.3     1  UNL1       -0.2926
     10 H         138.1032  136.6834  164.6537 H       1  UNL1        0.1236
     11 C         138.2517  138.1932  166.0220 C.3     1  UNL1        0.1152
     12 O         137.8204  145.0649  162.3690 O.2     1  UNL1       -0.2707
     13 C         138.3909  144.2067  163.4590 C.2     1  UNL1        0.2718
     14 C         139.3880  144.7808  164.4213 C.3     1  UNL1        0.2898
     15 O         139.9585  143.9226  165.5113 O.3     1  UNL1       -0.4628
     16 C         139.5318  142.4903  165.6390 C.ar    1  UNL1        0.1708
     17 C         140.1022  141.6320  166.7289 C.ar    1  UNL1        0.0411
     18 C         139.6755  140.1997  166.8566 C.ar    1  UNL1        0.0193
     19 C         138.6784  139.6256  165.8943 C.ar    1  UNL1        0.0765
     20 N         138.1079  140.4838  164.8043 N.ar    1  UNL1       -0.2304
     21 C         138.5347  141.9162  164.6767 C.ar    1  UNL1        0.1682
     22 N         137.9642  142.7743  163.5867 N.am    1  UNL1       -0.2639
     23 H         137.3097  142.3975  162.9551 H       1  UNL1        0.1565
     24 C         142.8945  138.7135  160.9799 C.3     1  UNL1        0.0661
     25 C         142.8869  140.1030  160.4150 C.3     1  UNL1        0.1790
     26 F         142.9226  140.5196  161.8555 F       1  UNL1       -0.2333
     27 C         142.8868  141.5796  160.1512 C.3     1  UNL1        0.1459
     28 N         142.8526  141.7852  158.6657 N.ar    1  UNL1       -0.2912
     29 C         142.8378  143.0269  157.8244 C.ar    1  UNL1        0.2611
     30 O         142.8588  144.3765  158.4787 O.2     1  UNL1       -0.2670
     31 C         142.8021  142.9190  156.3288 C.ar    1  UNL1        0.0623
     32 C         142.7811  141.5694  155.6744 C.ar    1  UNL1        0.0254
     33 C         142.7958  140.3277  156.5158 C.ar    1  UNL1        0.0972
     34 N         142.7810  138.8686  156.1401 N.ar    1  UNL1       -0.2400
     35 C         142.7991  137.7216  157.1066 C.ar    1  UNL1        0.1282
     36 C         142.8350  137.9853  158.5828 C.ar    1  UNL1        0.1591
     37 F         142.8531  136.8384  159.5493 F       1  UNL1       -0.2027
     38 C         142.8528  139.3960  159.0925 C.ar    1  UNL1        0.0553
     39 C         142.8316  140.4356  158.0114 C.ar    1  UNL1        0.0809
@<TRIPOS>BOND
     1    12    13    2
     2    13    14    1
     3    14    15    1
     4    15    16    1
     5    16    17   ar
     6    17    18   ar
     7    18    19   ar
     8    19    11    1
     9    11     9    1
    10     9     1    1
    11     1     2    1
    12     2     3    1
    13     3     4    1
    14     4    24    1
    15    24    25    1
    16    25    26    1
    17    25    27    1
    18    27    28    1
    19    28    29   ar
    20    29    30    2
    21    29    31   ar
    22    31    32   ar
    23    32    33   ar
    24    33    34   ar
    25    34    35   ar
    26    35    36   ar
    27    36    37    1
    28    36    38   ar
    29    38    39   ar
    30     4     5    1
    31     5     6    1
    32     4     7    1
    33     7     8    1
    34    19    20   ar
    35    20    21   ar
    36    21    22    1
    37    22    13   am
    38    21    16   ar
    39     6     1    1
    40     8     1    1
    41    38    25    1
    42    39    28   ar
    43    39    33   ar
    44     9    10    1
    45    22    23    1
@<TRIPOS>MOLECULE
*****
 39 45 0 0 0
SMALL
GASTEIGER

@<TRIPOS>ATOM
      1 C         144.4561  140.3058  157.4126 C.3     1  UNL1        0.0700
      2 C         145.0111  141.6977  157.3463 C.3     1  UNL1        0.0193
      3 C         144.7972  142.6456  158.4890 C.3     1  UNL1        0.0287
      4 C         144.0283  142.2016  159.6981 C.3     1  UNL1        0.0958
      5 C         143.4733  140.8096  159.7643 C.3     1  UNL1        0.0287
      6 C         143.6872  139.8617  158.6216 C.3     1  UNL1        0.0193
      7 O         144.1198  141.6466  159.0968 O.3     1  UNL1       -0.3571
      8 C         144.3131  140.7895  158.0635 C.3     1  UNL1        0.1562
      9 N         144.6699  139.3579  156.2699 N.3     1  UNL1       -0.2926
     10 H         145.2964  139.8242  155.6138 H       1  UNL1        0.1236
     11 C         143.4975  138.8661  155.4740 C.3     1  UNL1        0.1152
     12 O         145.0043  131.4489  157.3357 O.2     1  UNL1       -0.2707
     13 C         144.0487  132.4978  156.8490 C.2     1  UNL1        0.2718
     14 C         142.6398  132.1230  156.4962 C.3     1  UNL1        0.2898
     15 O         141.6841  133.1717  156.0094 O.3     1  UNL1       -0.4628
     16 C         142.1375  134.5953  155.8756 C.ar    1  UNL1        0.1708
     17 C         141.1819  135.6441  155.3889 C.ar    1  UNL1        0.0411
     18 C         141.6353  137.0677  155.2551 C.ar    1  UNL1        0.0193
     19 C         143.0442  137.4425  155.6079 C.ar    1  UNL1        0.0765
     20 N         143.9997  136.3937  156.0946 N.ar    1  UNL1       -0.2304
     21 C         143.5464  134.9701  156.2284 C.ar    1  UNL1        0.1682
     22 N         144.5020  133.9214  156.7151 N.am    1  UNL1       -0.2639
     23 H         145.4267  134.1673  156.9467 H       1  UNL1        0.1565
     24 C         143.8144  143.1495  160.8408 C.3     1  UNL1        0.0661
     25 C         142.4329  143.6373  161.1621 C.3     1  UNL1        0.1790
     26 F         142.3851  143.9810  159.7027 F       1  UNL1       -0.2333
     27 C         141.0413  144.1970  161.1783 C.3     1  UNL1        0.1459
     28 N         140.5178  144.0973  162.5805 N.ar    1  UNL1       -0.2912
     29 C         139.2066  144.4919  163.1928 C.ar    1  UNL1        0.2611
     30 O         138.1386  145.1133  162.3424 O.2     1  UNL1       -0.2670
     31 C         138.9635  144.2653  164.6554 C.ar    1  UNL1        0.0623
     32 C         140.0316  143.6439  165.5058 C.ar    1  UNL1        0.0254
     33 C         141.3428  143.2492  164.8935 C.ar    1  UNL1        0.0972
     34 N         142.5730  142.6181  165.4923 N.ar    1  UNL1       -0.2400
     35 C         143.8273  142.2768  164.7437 C.ar    1  UNL1        0.1282
     36 C         143.9255  142.5635  163.2747 C.ar    1  UNL1        0.1591
     37 F         145.1797  142.2222  162.5261 F       1  UNL1       -0.2027
     38 C         142.7694  143.1917  162.5542 C.ar    1  UNL1        0.0553
     39 C         141.5859  143.4759  163.4308 C.ar    1  UNL1        0.0809
@<TRIPOS>BOND
     1    12    13    2
     2    13    14    1
     3    14    15    1
     4    15    16    1
     5    16    17   ar
     6    17    18   ar
     7    18    19   ar
     8    19    11    1
     9    11     9    1
    10     9     1    1
    11     1     2    1
    12     2     3    1
    13     3     4    1
    14     4    24    1
    15    24    25    1
    16    25    26    1
    17    25    27    1
    18    27    28    1
    19    28    29   ar
    20    29    30    2
    21    29    31   ar
    22    31    32   ar
    23    32    33   ar
    24    33    34   ar
    25    34    35   ar
    26    35    36   ar
    27    36    37    1
    28    36    38   ar
    29    38    39   ar
    30     4     5    1
    31     5     6    1
    32     4     7    1
    33     7     8    1
    34    19    20   ar
    35    20    21   ar
    36    21    22    1
    37    22    13   am
    38    21    16   ar
    39     6     1    1
    40     8     1    1
    41    38    25    1
    42    39    28   ar
    43    39    33   ar
    44     9    10    1
    45    22    23    1
@<TRIPOS>MOLECULE
*****
 39 45 0 0 0
SMALL
GASTEIGER

@<TRIPOS>ATOM
      1 C         138.7110  141.4139  163.7957 C.3     1  UNL1        0.0700
      2 C         139.1749  142.6835  164.4460 C.3     1  UNL1        0.0193
      3 C         140.0508  143.6373  163.6889 C.3     1  UNL1        0.0287
      4 C         140.4627  143.3216  162.2815 C.3     1  UNL1        0.0958
      5 C         139.9987  142.0520  161.6312 C.3     1  UNL1        0.0287
      6 C         139.1228  141.0982  162.3883 C.3     1  UNL1        0.0193
      7 O         139.9818  142.7682  162.6563 O.3     1  UNL1       -0.3571
      8 C         139.1899  141.9058  163.3408 C.3     1  UNL1        0.1562
      9 N         137.8351  140.4601  164.5527 N.3     1  UNL1       -0.2926
     10 H         137.3091  141.0155  165.2274 H       1  UNL1        0.1236
     11 C         138.4480  139.3216  165.3131 C.3     1  UNL1        0.1152
     12 O         140.7253  142.1315  172.2174 O.2     1  UNL1       -0.2707
     13 C         141.0518  141.4594  170.9167 C.2     1  UNL1        0.2718
     14 C         142.4638  141.0520  170.6168 C.3     1  UNL1        0.2898
     15 O         142.7904  140.3799  169.3161 O.3     1  UNL1       -0.4628
     16 C         141.7048  140.1153  168.3154 C.ar    1  UNL1        0.1708
     17 C         142.0312  139.4432  167.0147 C.ar    1  UNL1        0.0411
     18 C         140.9456  139.1787  166.0140 C.ar    1  UNL1        0.0193
     19 C         139.5335  139.5862  166.3139 C.ar    1  UNL1        0.0765
     20 N         139.2071  140.2583  167.6146 N.ar    1  UNL1       -0.2304
     21 C         140.2927  140.5228  168.6153 C.ar    1  UNL1        0.1682
     22 N         139.9661  141.1949  169.9159 N.am    1  UNL1       -0.2639
     23 H         139.0393  141.4623  170.1128 H       1  UNL1        0.1565
     24 C         141.3385  144.2754  161.5244 C.3     1  UNL1        0.0661
     25 C         140.7920  145.0172  160.3408 C.3     1  UNL1        0.1790
     26 F         139.8473  145.6073  161.3454 F       1  UNL1       -0.2333
     27 C         140.0480  145.8824  159.3671 C.3     1  UNL1        0.1459
     28 N         140.6471  145.6719  158.0081 N.ar    1  UNL1       -0.2912
     29 C         140.3220  146.2580  156.6662 C.ar    1  UNL1        0.2611
     30 O         139.2077  147.2532  156.5325 O.2     1  UNL1       -0.2670
     31 C         141.1111  145.8487  155.4580 C.ar    1  UNL1        0.0623
     32 C         142.2254  144.8535  155.5918 C.ar    1  UNL1        0.0254
     33 C         142.5505  144.2675  156.9337 C.ar    1  UNL1        0.0972
     34 N         143.5943  143.2672  157.3585 N.ar    1  UNL1       -0.2400
     35 C         143.8027  142.7691  158.7579 C.ar    1  UNL1        0.1282
     36 C         142.9311  143.2716  159.8704 C.ar    1  UNL1        0.1591
     37 F         143.1395  142.7735  161.2699 F       1  UNL1       -0.2027
     38 C         141.8509  144.2721  159.5835 C.ar    1  UNL1        0.0553
     39 C         141.7614  144.6767  158.1419 C.ar    1  UNL1        0.0809
@<TRIPOS>BOND
     1    12    13    2
     2    13    14    1
     3    14    15    1
     4    15    16    1
     5    16    17   ar
     6    17    18   ar
     7    18    19   ar
     8    19    11    1
     9    11     9    1
    10     9     1    1
    11     1     2    1
    12     2     3    1
    13     3     4    1
    14     4    24    1
    15    24    25    1
    16    25    26    1
    17    25    27    1
    18    27    28    1
    19    28    29   ar
    20    29    30    2
    21    29    31   ar
    22    31    32   ar
    23    32    33   ar
    24    33    34   ar
    25    34    35   ar
    26    35    36   ar
    27    36    37    1
    28    36    38   ar
    29    38    39   ar
    30     4     5    1
    31     5     6    1
    32     4     7    1
    33     7     8    1
    34    19    20   ar
    35    20    21   ar
    36    21    22    1
    37    22    13   am
    38    21    16   ar
    39     6     1    1
    40     8     1    1
    41    38    25    1
    42    39    28   ar
    43    39    33   ar
    44     9    10    1
    45    22    23    1
