@<TRIPOS>MOLECULE
*****
 32 34 0 0 0
SMALL
GASTEIGER

@<TRIPOS>ATOM
      1 N         139.6499  139.9709  167.8989 N.am    1  UNL1       -0.3004
      2 C         139.5471  140.3333  169.3508 C.2     1  UNL1        0.2240
      3 O         138.2889  140.0352  170.1110 O.2     1  UNL1       -0.2750
      4 H         140.4758  140.1665  167.4000 H       1  UNL1        0.1497
      5 C         140.7027  140.9939  170.0426 C.3     1  UNL1        0.0975
      6 C         140.6712  141.6278  171.4017 C.3     1  UNL1        0.0781
      7 N         142.0416  142.1622  171.6958 N.3     1  UNL1       -0.2968
      8 C         142.9200  141.8585  170.5184 C.3     1  UNL1        0.0735
      9 C         142.0925  141.1365  169.4967 C.3     1  UNL1        0.0480
     10 H         142.4160  141.7136  172.5318 H       1  UNL1        0.1233
     11 C         142.5709  140.6436  168.1632 C.ar    1  UNL1       -0.0207
     12 C         142.8430  139.1829  167.9571 C.ar    1  UNL1       -0.0043
     13 C         143.3214  138.6900  166.6236 C.ar    1  UNL1        0.0035
     14 C         143.5277  139.6577  165.4962 C.ar    1  UNL1        0.0714
     15 C         143.2556  141.1183  165.7023 C.ar    1  UNL1        0.0035
     16 C         142.7772  141.6112  167.0358 C.ar    1  UNL1       -0.0043
     17 C         144.0061  139.1648  164.1627 C.3     1  UNL1        0.4186
     18 F         144.4844  138.6719  162.8293 F       1  UNL1       -0.1659
     19 F         145.2743  139.9487  164.3279 F       1  UNL1       -0.1659
     20 F         142.7378  138.3809  163.9975 F       1  UNL1       -0.1659
     21 C         138.4945  139.3104  167.2071 C.3     1  UNL1        0.1163
     22 C         138.4265  139.0224  162.7169 C.ar    1  UNL1        0.0478
     23 C         138.8277  137.8334  163.5387 C.ar    1  UNL1        0.0142
     24 C         138.8504  137.9295  165.0354 C.ar    1  UNL1       -0.0014
     25 C         138.4718  139.2144  165.7104 C.ar    1  UNL1       -0.0025
     26 C         138.0705  140.4033  164.8886 C.ar    1  UNL1       -0.0014
     27 C         138.0478  140.3073  163.3918 C.ar    1  UNL1        0.0142
     28 N         138.4038  138.9263  161.2201 N.pl3   1  UNL1       -0.3075
     29 C         140.8558  138.5041  160.4722 C.3     1  UNL1        0.0232
     30 C         139.4172  138.0808  160.5074 C.3     1  UNL1        0.0908
     31 C         137.3677  139.6759  160.4361 C.3     1  UNL1        0.0908
     32 C         137.7664  140.4508  159.2152 C.3     1  UNL1        0.0232
@<TRIPOS>BOND
     1    29    30    1
     2    30    28    1
     3    28    31    1
     4    31    32    1
     5    28    22    1
     6    22    23   ar
     7    23    24   ar
     8    24    25   ar
     9    25    21    1
    10    21     1    1
    11     1     2   am
    12     2     3    2
    13     5     2    1
    14     5     6    1
    15     6     7    1
    16     7     8    1
    17     8     9    1
    18     9    11    1
    19    11    12   ar
    20    12    13   ar
    21    13    14   ar
    22    14    17    1
    23    17    18    1
    24    17    19    1
    25    17    20    1
    26    14    15   ar
    27    15    16   ar
    28    25    26   ar
    29    26    27   ar
    30    27    22   ar
    31     9     5    1
    32    16    11   ar
    33     1     4    1
    34     7    10    1
@<TRIPOS>MOLECULE
*****
 32 34 0 0 0
SMALL
GASTEIGER

@<TRIPOS>ATOM
      1 N         139.7132  139.9373  167.9326 N.am    1  UNL1       -0.3004
      2 C         139.5320  140.3564  169.3614 C.2     1  UNL1        0.2240
      3 O         138.2818  139.9810  170.1003 O.2     1  UNL1       -0.2750
      4 H         140.5338  140.1837  167.4476 H       1  UNL1        0.1497
      5 C         140.6011  141.1509  170.0513 C.3     1  UNL1        0.0975
      6 C         140.8973  141.1400  171.5218 C.3     1  UNL1        0.0781
      7 N         142.0409  142.0781  171.7712 N.3     1  UNL1       -0.2968
      8 C         142.4514  142.6688  170.4549 C.3     1  UNL1        0.0735
      9 C         141.5615  142.0958  169.3920 C.3     1  UNL1        0.0480
     10 H         142.8236  141.5684  172.1811 H       1  UNL1        0.1233
     11 C         141.6216  142.4121  167.9270 C.ar    1  UNL1       -0.0207
     12 C         140.4123  142.9585  167.2275 C.ar    1  UNL1       -0.0043
     13 C         140.4724  143.2749  165.7625 C.ar    1  UNL1        0.0035
     14 C         141.7417  143.0448  164.9969 C.ar    1  UNL1        0.0714
     15 C         142.9509  142.4983  165.6964 C.ar    1  UNL1        0.0035
     16 C         142.8908  142.1820  167.1614 C.ar    1  UNL1       -0.0043
     17 C         141.8018  143.3611  163.5319 C.3     1  UNL1        0.4186
     18 F         141.8619  143.6773  162.0668 F       1  UNL1       -0.1659
     19 F         141.9682  144.8168  163.8530 F       1  UNL1       -0.1659
     20 F         141.6354  141.9053  163.2107 F       1  UNL1       -0.1659
     21 C         138.6443  139.1429  167.2426 C.3     1  UNL1        0.1163
     22 C         138.5066  138.9836  162.7476 C.ar    1  UNL1        0.0478
     23 C         138.8680  137.7564  163.5308 C.ar    1  UNL1        0.0142
     24 C         138.9139  137.8095  165.0292 C.ar    1  UNL1       -0.0014
     25 C         138.5984  139.0898  165.7443 C.ar    1  UNL1       -0.0025
     26 C         138.2371  140.3169  164.9610 C.ar    1  UNL1       -0.0014
     27 C         138.1912  140.2638  163.4627 C.ar    1  UNL1        0.0142
     28 N         138.4608  138.9305  161.2492 N.pl3   1  UNL1       -0.3075
     29 C         140.9015  138.4693  160.4877 C.3     1  UNL1        0.0232
     30 C         139.4503  138.0901  160.4979 C.3     1  UNL1        0.0908
     31 C         137.4254  139.7178  160.5022 C.3     1  UNL1        0.0908
     32 C         137.8304  140.5801  159.3436 C.3     1  UNL1        0.0232
@<TRIPOS>BOND
     1    29    30    1
     2    30    28    1
     3    28    31    1
     4    31    32    1
     5    28    22    1
     6    22    23   ar
     7    23    24   ar
     8    24    25   ar
     9    25    21    1
    10    21     1    1
    11     1     2   am
    12     2     3    2
    13     5     2    1
    14     5     6    1
    15     6     7    1
    16     7     8    1
    17     8     9    1
    18     9    11    1
    19    11    12   ar
    20    12    13   ar
    21    13    14   ar
    22    14    17    1
    23    17    18    1
    24    17    19    1
    25    17    20    1
    26    14    15   ar
    27    15    16   ar
    28    25    26   ar
    29    26    27   ar
    30    27    22   ar
    31     9     5    1
    32    16    11   ar
    33     1     4    1
    34     7    10    1
@<TRIPOS>MOLECULE
*****
 32 34 0 0 0
SMALL
GASTEIGER

@<TRIPOS>ATOM
      1 N         141.5704  139.5657  162.4027 N.am    1  UNL1       -0.3004
      2 C         140.4534  138.7658  161.8006 C.2     1  UNL1        0.2240
      3 O         140.1013  137.4231  162.3691 O.2     1  UNL1       -0.2750
      4 H         141.8015  140.4469  162.0296 H       1  UNL1        0.1497
      5 C         139.6886  139.3086  160.6299 C.3     1  UNL1        0.0975
      6 C         139.5329  138.6444  159.2940 C.3     1  UNL1        0.0781
      7 N         138.6933  139.5361  158.4280 N.3     1  UNL1       -0.2968
      8 C         138.3301  140.7515  159.2288 C.3     1  UNL1        0.0735
      9 C         138.9452  140.6108  160.5896 C.3     1  UNL1        0.0480
     10 H         137.8467  139.0440  158.1425 H       1  UNL1        0.1233
     11 C         138.8361  141.5989  161.7129 C.ar    1  UNL1       -0.0207
     12 C         139.8334  142.7132  161.8310 C.ar    1  UNL1       -0.0043
     13 C         139.7243  143.7013  162.9542 C.ar    1  UNL1        0.0035
     14 C         138.6180  143.5752  163.9594 C.ar    1  UNL1        0.0714
     15 C         137.6208  142.4609  163.8412 C.ar    1  UNL1        0.0035
     16 C         137.7299  141.4728  162.7180 C.ar    1  UNL1       -0.0043
     17 C         138.5089  144.5633  165.0827 C.3     1  UNL1        0.4186
     18 F         138.3997  145.5513  166.2059 F       1  UNL1       -0.1659
     19 F         139.9925  144.7795  165.0365 F       1  UNL1       -0.1659
     20 F         137.0252  144.3470  165.1288 F       1  UNL1       -0.1659
     21 C         142.3352  139.0229  163.5734 C.3     1  UNL1        0.1163
     22 C         141.8768  140.9121  167.6318 C.ar    1  UNL1        0.0478
     23 C         141.2869  141.5775  166.4238 C.ar    1  UNL1        0.0142
     24 C         141.4397  140.9478  165.0710 C.ar    1  UNL1       -0.0014
     25 C         142.1824  139.6527  164.9262 C.ar    1  UNL1       -0.0025
     26 C         142.7723  138.9872  166.1341 C.ar    1  UNL1       -0.0014
     27 C         142.6195  139.6170  167.4870 C.ar    1  UNL1        0.0142
     28 N         141.7240  141.5418  168.9846 N.pl3   1  UNL1       -0.3075
     29 C         140.4496  143.6918  169.6942 C.3     1  UNL1        0.0232
     30 C         140.4433  142.2318  169.3504 C.3     1  UNL1        0.0908
     31 C         142.8519  141.4816  169.9716 C.3     1  UNL1        0.0908
     32 C         144.0096  142.4271  169.8461 C.3     1  UNL1        0.0232
@<TRIPOS>BOND
     1    29    30    1
     2    30    28    1
     3    28    31    1
     4    31    32    1
     5    28    22    1
     6    22    23   ar
     7    23    24   ar
     8    24    25   ar
     9    25    21    1
    10    21     1    1
    11     1     2   am
    12     2     3    2
    13     5     2    1
    14     5     6    1
    15     6     7    1
    16     7     8    1
    17     8     9    1
    18     9    11    1
    19    11    12   ar
    20    12    13   ar
    21    13    14   ar
    22    14    17    1
    23    17    18    1
    24    17    19    1
    25    17    20    1
    26    14    15   ar
    27    15    16   ar
    28    25    26   ar
    29    26    27   ar
    30    27    22   ar
    31     9     5    1
    32    16    11   ar
    33     1     4    1
    34     7    10    1
@<TRIPOS>MOLECULE
*****
 32 34 0 0 0
SMALL
GASTEIGER

@<TRIPOS>ATOM
      1 N         141.5413  139.4592  162.5934 N.am    1  UNL1       -0.3004
      2 C         140.4068  138.6926  161.9808 C.2     1  UNL1        0.2240
      3 O         139.9772  137.3847  162.5765 O.2     1  UNL1       -0.2750
      4 H         141.8233  140.3175  162.2024 H       1  UNL1        0.1497
      5 C         139.7020  139.2339  160.7723 C.3     1  UNL1        0.0975
      6 C         139.5866  138.5535  159.4404 C.3     1  UNL1        0.0781
      7 N         138.8022  139.4496  158.5285 N.3     1  UNL1       -0.2968
      8 C         138.4328  140.6839  159.2968 C.3     1  UNL1        0.0735
      9 C         138.9889  140.5505  160.6835 C.3     1  UNL1        0.0480
     10 H         137.9576  138.9710  158.2154 H       1  UNL1        0.1233
     11 C         138.8553  141.5571  161.7875 C.ar    1  UNL1       -0.0207
     12 C         137.7945  141.3859  162.8342 C.ar    1  UNL1       -0.0043
     13 C         137.6609  142.3925  163.9382 C.ar    1  UNL1        0.0035
     14 C         138.5881  143.5702  163.9957 C.ar    1  UNL1        0.0714
     15 C         139.6489  143.7414  162.9491 C.ar    1  UNL1        0.0035
     16 C         139.7825  142.7348  161.8451 C.ar    1  UNL1       -0.0043
     17 C         138.4545  144.5768  165.0997 C.3     1  UNL1        0.4186
     18 F         138.3211  145.5834  166.2038 F       1  UNL1       -0.1659
     19 F         136.9695  144.3658  165.1125 F       1  UNL1       -0.1659
     20 F         139.9396  144.7879  165.0870 F       1  UNL1       -0.1659
     21 C         142.2460  138.9179  163.8019 C.3     1  UNL1        0.1163
     22 C         141.3326  140.5926  167.8775 C.ar    1  UNL1        0.0478
     23 C         142.4753  139.6376  167.6979 C.ar    1  UNL1        0.0142
     24 C         142.7797  139.0794  166.3394 C.ar    1  UNL1       -0.0014
     25 C         141.9416  139.4762  165.1604 C.ar    1  UNL1       -0.0025
     26 C         140.7990  140.4312  165.3400 C.ar    1  UNL1       -0.0014
     27 C         140.4945  140.9894  166.6986 C.ar    1  UNL1        0.0142
     28 N         141.0282  141.1508  169.2361 N.pl3   1  UNL1       -0.3075
     29 C         138.7350  140.2874  170.0997 C.3     1  UNL1        0.0232
     30 C         140.2294  140.3443  170.2166 C.3     1  UNL1        0.0908
     31 C         141.5225  142.5156  169.6142 C.3     1  UNL1        0.0908
     32 C         140.5591  143.6608  169.7154 C.3     1  UNL1        0.0232
@<TRIPOS>BOND
     1    29    30    1
     2    30    28    1
     3    28    31    1
     4    31    32    1
     5    28    22    1
     6    22    23   ar
     7    23    24   ar
     8    24    25   ar
     9    25    21    1
    10    21     1    1
    11     1     2   am
    12     2     3    2
    13     5     2    1
    14     5     6    1
    15     6     7    1
    16     7     8    1
    17     8     9    1
    18     9    11    1
    19    11    12   ar
    20    12    13   ar
    21    13    14   ar
    22    14    17    1
    23    17    18    1
    24    17    19    1
    25    17    20    1
    26    14    15   ar
    27    15    16   ar
    28    25    26   ar
    29    26    27   ar
    30    27    22   ar
    31     9     5    1
    32    16    11   ar
    33     1     4    1
    34     7    10    1
@<TRIPOS>MOLECULE
*****
 32 34 0 0 0
SMALL
GASTEIGER

@<TRIPOS>ATOM
      1 N         141.7898  145.1749  161.2884 N.am    1  UNL1       -0.3004
      2 C         141.2361  144.4622  160.0903 C.2     1  UNL1        0.2240
      3 O         139.7744  144.1325  160.0229 O.2     1  UNL1       -0.2750
      4 H         142.7492  145.3913  161.3326 H       1  UNL1        0.1497
      5 C         142.1443  144.0791  158.9595 C.3     1  UNL1        0.0975
      6 C         142.1016  144.6355  157.5672 C.3     1  UNL1        0.0781
      7 N         143.1855  143.9728  156.7697 N.3     1  UNL1       -0.2968
      8 C         143.8980  143.0067  157.6693 C.3     1  UNL1        0.0735
      9 C         143.2545  143.0724  159.0226 C.3     1  UNL1        0.0480
     10 H         143.8414  144.6746  156.4267 H       1  UNL1        0.1233
     11 C         143.6515  142.2720  160.2274 C.ar    1  UNL1       -0.0207
     12 C         144.6056  142.8497  161.2305 C.ar    1  UNL1       -0.0043
     13 C         145.0026  142.0493  162.4354 C.ar    1  UNL1        0.0035
     14 C         144.4457  140.6712  162.6372 C.ar    1  UNL1        0.0714
     15 C         143.4917  140.0936  161.6342 C.ar    1  UNL1        0.0035
     16 C         143.0947  140.8940  160.4293 C.ar    1  UNL1       -0.0043
     17 C         144.8427  139.8708  163.8421 C.3     1  UNL1        0.4186
     18 F         145.2398  139.0705  165.0469 F       1  UNL1       -0.1659
     19 F         143.8404  138.8178  163.4728 F       1  UNL1       -0.1659
     20 F         145.8452  140.9239  164.2113 F       1  UNL1       -0.1659
     21 C         140.8817  145.5580  162.4192 C.3     1  UNL1        0.1163
     22 C         140.6192  142.9497  166.0768 C.ar    1  UNL1        0.0478
     23 C         141.8386  142.8982  165.2048 C.ar    1  UNL1        0.0142
     24 C         141.9261  143.7676  163.9856 C.ar    1  UNL1       -0.0014
     25 C         140.7942  144.6886  163.6384 C.ar    1  UNL1       -0.0025
     26 C         139.5748  144.7401  164.5103 C.ar    1  UNL1       -0.0014
     27 C         139.4873  143.8707  165.7296 C.ar    1  UNL1        0.0142
     28 N         140.5317  142.0803  167.2960 N.pl3   1  UNL1       -0.3075
     29 C         139.4869  140.0184  168.4822 C.3     1  UNL1        0.0232
     30 C         139.8381  140.7524  167.2220 C.3     1  UNL1        0.0908
     31 C         141.1379  142.5388  168.5891 C.3     1  UNL1        0.0908
     32 C         140.4190  143.5435  169.4399 C.3     1  UNL1        0.0232
@<TRIPOS>BOND
     1    29    30    1
     2    30    28    1
     3    28    31    1
     4    31    32    1
     5    28    22    1
     6    22    23   ar
     7    23    24   ar
     8    24    25   ar
     9    25    21    1
    10    21     1    1
    11     1     2   am
    12     2     3    2
    13     5     2    1
    14     5     6    1
    15     6     7    1
    16     7     8    1
    17     8     9    1
    18     9    11    1
    19    11    12   ar
    20    12    13   ar
    21    13    14   ar
    22    14    17    1
    23    17    18    1
    24    17    19    1
    25    17    20    1
    26    14    15   ar
    27    15    16   ar
    28    25    26   ar
    29    26    27   ar
    30    27    22   ar
    31     9     5    1
    32    16    11   ar
    33     1     4    1
    34     7    10    1
@<TRIPOS>MOLECULE
*****
 32 34 0 0 0
SMALL
GASTEIGER

@<TRIPOS>ATOM
      1 N         142.6450  141.4271  163.0148 N.am    1  UNL1       -0.3004
      2 C         143.5808  140.5682  162.2170 C.2     1  UNL1        0.2240
      3 O         145.0507  140.5825  162.5156 O.2     1  UNL1       -0.2750
      4 H         141.6802  141.4176  162.8188 H       1  UNL1        0.1497
      5 C         143.0467  139.6949  161.1205 C.3     1  UNL1        0.0975
      6 C         143.6418  139.5333  159.7531 C.3     1  UNL1        0.0781
      7 N         142.7866  138.5685  158.9864 N.3     1  UNL1       -0.2968
      8 C         141.6630  138.1338  159.8800 C.3     1  UNL1        0.0735
      9 C         141.8237  138.8299  161.1990 C.3     1  UNL1        0.0480
     10 H         143.3415  137.7588  158.7092 H       1  UNL1        0.1233
     11 C         140.9201  138.6863  162.3876 C.ar    1  UNL1       -0.0207
     12 C         139.6229  139.4379  162.4386 C.ar    1  UNL1       -0.0043
     13 C         138.7193  139.2942  163.6273 C.ar    1  UNL1        0.0035
     14 C         139.1127  138.3991  164.7648 C.ar    1  UNL1        0.0714
     15 C         140.4099  137.6476  164.7137 C.ar    1  UNL1        0.0035
     16 C         141.3135  137.7912  163.5251 C.ar    1  UNL1       -0.0043
     17 C         138.2091  138.2555  165.9534 C.3     1  UNL1        0.4186
     18 F         137.3055  138.1118  167.1420 F       1  UNL1       -0.1659
     19 F         138.1041  139.7484  166.0540 F       1  UNL1       -0.1659
     20 F         138.3142  136.7625  165.8529 F       1  UNL1       -0.1659
     21 C         143.1790  142.3003  164.1112 C.3     1  UNL1        0.1163
     22 C         141.7495  141.7302  168.3399 C.ar    1  UNL1        0.0478
     23 C         140.8926  141.2849  167.1920 C.ar    1  UNL1        0.0142
     24 C         141.3692  141.4750  165.7825 C.ar    1  UNL1       -0.0014
     25 C         142.7025  142.1103  165.5208 C.ar    1  UNL1       -0.0025
     26 C         143.5593  142.5555  166.6686 C.ar    1  UNL1       -0.0014
     27 C         143.0828  142.3655  168.0782 C.ar    1  UNL1        0.0142
     28 N         141.2729  141.5401  169.7494 N.pl3   1  UNL1       -0.3075
     29 C         142.3175  139.1655  169.8908 C.3     1  UNL1        0.0232
     30 C         141.7922  140.3961  170.5689 C.3     1  UNL1        0.0908
     31 C         140.2771  142.4941  170.3395 C.3     1  UNL1        0.0908
     32 C         140.3110  143.9445  169.9585 C.3     1  UNL1        0.0232
@<TRIPOS>BOND
     1    29    30    1
     2    30    28    1
     3    28    31    1
     4    31    32    1
     5    28    22    1
     6    22    23   ar
     7    23    24   ar
     8    24    25   ar
     9    25    21    1
    10    21     1    1
    11     1     2   am
    12     2     3    2
    13     5     2    1
    14     5     6    1
    15     6     7    1
    16     7     8    1
    17     8     9    1
    18     9    11    1
    19    11    12   ar
    20    12    13   ar
    21    13    14   ar
    22    14    17    1
    23    17    18    1
    24    17    19    1
    25    17    20    1
    26    14    15   ar
    27    15    16   ar
    28    25    26   ar
    29    26    27   ar
    30    27    22   ar
    31     9     5    1
    32    16    11   ar
    33     1     4    1
    34     7    10    1
@<TRIPOS>MOLECULE
*****
 32 34 0 0 0
SMALL
GASTEIGER

@<TRIPOS>ATOM
      1 N         138.7305  140.6345  162.4484 N.am    1  UNL1       -0.3004
      2 C         138.3545  141.9826  161.9086 C.2     1  UNL1        0.2240
      3 O         137.3514  142.8284  162.6355 O.2     1  UNL1       -0.2750
      4 H         139.3888  140.0794  161.9713 H       1  UNL1        0.1497
      5 C         138.9816  142.4848  160.6419 C.3     1  UNL1        0.0975
      6 C         138.3528  142.4687  159.2801 C.3     1  UNL1        0.0781
      7 N         139.3301  143.0653  158.3111 N.3     1  UNL1       -0.2968
      8 C         140.5630  143.4500  159.0741 C.3     1  UNL1        0.0735
      9 C         140.3476  143.0913  160.5145 C.3     1  UNL1        0.0480
     10 H         138.9225  143.8911  157.8726 H       1  UNL1        0.1233
     11 C         141.3264  143.3020  161.6314 C.ar    1  UNL1       -0.0207
     12 C         142.0214  142.1261  162.2514 C.ar    1  UNL1       -0.0043
     13 C         143.0002  142.3369  163.3683 C.ar    1  UNL1        0.0035
     14 C         143.2840  143.7234  163.8654 C.ar    1  UNL1        0.0714
     15 C         142.5889  144.8992  163.2454 C.ar    1  UNL1        0.0035
     16 C         141.6102  144.6885  162.1285 C.ar    1  UNL1       -0.0043
     17 C         144.2627  143.9341  164.9823 C.3     1  UNL1        0.4186
     18 F         145.2415  144.1450  166.0992 F       1  UNL1       -0.1659
     19 F         144.3411  142.4512  165.1935 F       1  UNL1       -0.1659
     20 F         144.1844  145.4172  164.7711 F       1  UNL1       -0.1659
     21 C         138.1034  140.1323  163.7150 C.3     1  UNL1        0.1163
     22 C         140.0464  140.9912  167.6820 C.ar    1  UNL1        0.0478
     23 C         140.3143  141.8839  166.5068 C.ar    1  UNL1        0.0142
     24 C         139.6666  141.5976  165.1844 C.ar    1  UNL1       -0.0014
     25 C         138.7511  140.4186  165.0374 C.ar    1  UNL1       -0.0025
     26 C         138.4832  139.5258  166.2126 C.ar    1  UNL1       -0.0014
     27 C         139.1309  139.8121  167.5349 C.ar    1  UNL1        0.0142
     28 N         140.6941  141.2775  169.0043 N.pl3   1  UNL1       -0.3075
     29 C         142.6167  139.6302  168.4213 C.3     1  UNL1        0.0232
     30 C         141.9597  140.5699  169.3884 C.3     1  UNL1        0.0908
     31 C         140.0762  142.2714  169.9425 C.3     1  UNL1        0.0908
     32 C         140.4727  143.7163  169.8720 C.3     1  UNL1        0.0232
@<TRIPOS>BOND
     1    29    30    1
     2    30    28    1
     3    28    31    1
     4    31    32    1
     5    28    22    1
     6    22    23   ar
     7    23    24   ar
     8    24    25   ar
     9    25    21    1
    10    21     1    1
    11     1     2   am
    12     2     3    2
    13     5     2    1
    14     5     6    1
    15     6     7    1
    16     7     8    1
    17     8     9    1
    18     9    11    1
    19    11    12   ar
    20    12    13   ar
    21    13    14   ar
    22    14    17    1
    23    17    18    1
    24    17    19    1
    25    17    20    1
    26    14    15   ar
    27    15    16   ar
    28    25    26   ar
    29    26    27   ar
    30    27    22   ar
    31     9     5    1
    32    16    11   ar
    33     1     4    1
    34     7    10    1
@<TRIPOS>MOLECULE
*****
 32 34 0 0 0
SMALL
GASTEIGER

@<TRIPOS>ATOM
      1 N         143.7399  140.2135  162.0031 N.am    1  UNL1       -0.3004
      2 C         144.5032  141.4350  161.5844 C.2     1  UNL1        0.2240
      3 O         145.7453  141.8337  162.3248 O.2     1  UNL1       -0.2750
      4 H         142.9247  139.9519  161.5171 H       1  UNL1        0.1497
      5 C         144.0245  142.2577  160.4250 C.3     1  UNL1        0.0975
      6 C         144.6057  142.2548  159.0422 C.3     1  UNL1        0.0781
      7 N         143.8210  143.2231  158.2075 N.3     1  UNL1       -0.2968
      8 C         142.7548  143.8245  159.0746 C.3     1  UNL1        0.0735
      9 C         142.8806  143.2278  160.4451 C.3     1  UNL1        0.0480
     10 H         143.3929  142.7345  157.4211 H       1  UNL1        0.1233
     11 C         142.0146  143.5456  161.6278 C.ar    1  UNL1       -0.0207
     12 C         140.7367  142.7908  161.8460 C.ar    1  UNL1       -0.0043
     13 C         139.8707  143.1085  163.0288 C.ar    1  UNL1        0.0035
     14 C         140.2824  144.1809  163.9934 C.ar    1  UNL1        0.0714
     15 C         141.5602  144.9356  163.7753 C.ar    1  UNL1        0.0035
     16 C         142.4262  144.6179  162.5925 C.ar    1  UNL1       -0.0043
     17 C         139.4163  144.4986  165.1762 C.3     1  UNL1        0.4186
     18 F         138.5504  144.8163  166.3591 F       1  UNL1       -0.1659
     19 F         138.5111  145.3083  164.2959 F       1  UNL1       -0.1659
     20 F         140.3216  143.6889  166.0566 F       1  UNL1       -0.1659
     21 C         144.2186  139.3908  163.1624 C.3     1  UNL1        0.1163
     22 C         142.6064  140.1681  167.2911 C.ar    1  UNL1        0.0478
     23 C         142.5435  141.2429  166.2468 C.ar    1  UNL1        0.0142
     24 C         143.0809  140.9838  164.8705 C.ar    1  UNL1       -0.0014
     25 C         143.6812  139.6499  164.5386 C.ar    1  UNL1       -0.0025
     26 C         143.7441  138.5751  165.5830 C.ar    1  UNL1       -0.0014
     27 C         143.2067  138.8342  166.9592 C.ar    1  UNL1        0.0142
     28 N         142.0690  140.4272  168.6674 N.pl3   1  UNL1       -0.3075
     29 C         143.6080  142.2284  169.7337 C.3     1  UNL1        0.0232
     30 C         142.9952  140.8596  169.7651 C.3     1  UNL1        0.0908
     31 C         140.6053  140.2539  168.9459 C.3     1  UNL1        0.0908
     32 C         139.8324  141.3555  169.6085 C.3     1  UNL1        0.0232
@<TRIPOS>BOND
     1    29    30    1
     2    30    28    1
     3    28    31    1
     4    31    32    1
     5    28    22    1
     6    22    23   ar
     7    23    24   ar
     8    24    25   ar
     9    25    21    1
    10    21     1    1
    11     1     2   am
    12     2     3    2
    13     5     2    1
    14     5     6    1
    15     6     7    1
    16     7     8    1
    17     8     9    1
    18     9    11    1
    19    11    12   ar
    20    12    13   ar
    21    13    14   ar
    22    14    17    1
    23    17    18    1
    24    17    19    1
    25    17    20    1
    26    14    15   ar
    27    15    16   ar
    28    25    26   ar
    29    26    27   ar
    30    27    22   ar
    31     9     5    1
    32    16    11   ar
    33     1     4    1
    34     7    10    1
@<TRIPOS>MOLECULE
*****
 32 34 0 0 0
SMALL
GASTEIGER

@<TRIPOS>ATOM
      1 N         145.1460  142.5453  162.0105 N.am    1  UNL1       -0.3004
      2 C         144.2773  141.8874  160.9797 C.2     1  UNL1        0.2240
      3 O         143.8738  140.4521  161.1445 O.2     1  UNL1       -0.2750
      4 H         145.4109  143.4873  161.9023 H       1  UNL1        0.1497
      5 C         143.8121  142.6647  159.7841 C.3     1  UNL1        0.0975
      6 C         144.4820  142.7035  158.4425 C.3     1  UNL1        0.0781
      7 N         143.6794  143.6025  157.5495 N.3     1  UNL1       -0.2968
      8 C         142.5134  144.1194  158.3392 C.3     1  UNL1        0.0735
      9 C         142.5955  143.5398  159.7202 C.3     1  UNL1        0.0480
     10 H         143.3447  143.0783  156.7410 H       1  UNL1        0.1233
     11 C         141.6304  143.7912  160.8407 C.ar    1  UNL1       -0.0207
     12 C         140.2000  143.3587  160.7096 C.ar    1  UNL1       -0.0043
     13 C         139.2349  143.6100  161.8300 C.ar    1  UNL1        0.0035
     14 C         139.7001  144.2938  163.0815 C.ar    1  UNL1        0.0714
     15 C         141.1304  144.7263  163.2125 C.ar    1  UNL1        0.0035
     16 C         142.0955  144.4749  162.0921 C.ar    1  UNL1       -0.0043
     17 C         138.7350  144.5452  164.2019 C.3     1  UNL1        0.4186
     18 F         137.7698  144.7966  165.3222 F       1  UNL1       -0.1659
     19 F         139.8817  144.6798  165.1595 F       1  UNL1       -0.1659
     20 F         137.5882  144.4106  163.2443 F       1  UNL1       -0.1659
     21 C         145.6112  141.7680  163.2060 C.3     1  UNL1        0.1163
     22 C         142.7725  140.9473  166.5999 C.ar    1  UNL1        0.0478
     23 C         143.2906  139.8141  165.7648 C.ar    1  UNL1        0.0142
     24 C         144.2368  140.0877  164.6335 C.ar    1  UNL1       -0.0014
     25 C         144.6650  141.4944  164.3373 C.ar    1  UNL1       -0.0025
     26 C         144.1469  142.6276  165.1724 C.ar    1  UNL1       -0.0014
     27 C         143.2007  142.3540  166.3038 C.ar    1  UNL1        0.0142
     28 N         141.8263  140.6738  167.7312 N.pl3   1  UNL1       -0.3075
     29 C         139.8307  141.4131  166.2410 C.3     1  UNL1        0.0232
     30 C         140.3559  140.9100  167.5529 C.3     1  UNL1        0.0908
     31 C         142.3506  140.1640  169.0409 C.3     1  UNL1        0.0908
     32 C         143.1030  141.0835  169.9566 C.3     1  UNL1        0.0232
@<TRIPOS>BOND
     1    29    30    1
     2    30    28    1
     3    28    31    1
     4    31    32    1
     5    28    22    1
     6    22    23   ar
     7    23    24   ar
     8    24    25   ar
     9    25    21    1
    10    21     1    1
    11     1     2   am
    12     2     3    2
    13     5     2    1
    14     5     6    1
    15     6     7    1
    16     7     8    1
    17     8     9    1
    18     9    11    1
    19    11    12   ar
    20    12    13   ar
    21    13    14   ar
    22    14    17    1
    23    17    18    1
    24    17    19    1
    25    17    20    1
    26    14    15   ar
    27    15    16   ar
    28    25    26   ar
    29    26    27   ar
    30    27    22   ar
    31     9     5    1
    32    16    11   ar
    33     1     4    1
    34     7    10    1
