@<TRIPOS>MOLECULE
*****
 33 37 0 0 0
SMALL
GASTEIGER

@<TRIPOS>ATOM
      1 N         140.6565  142.9973  164.6641 N.pl3   1  UNL1       -0.3076
      2 C         139.6763  143.6718  165.5775 C.3     1  UNL1        0.0909
      3 C         139.0997  144.8499  164.8499 C.3     1  UNL1        0.0245
      4 C         139.7235  144.9036  163.4868 C.3     1  UNL1        0.0372
      5 C         139.7527  145.6649  162.1946 C.3     1  UNL1        0.0738
      6 N         140.7328  144.9904  161.2813 N.3     1  UNL1       -0.2712
      7 C         141.3095  143.8122  162.0089 C.3     1  UNL1        0.0921
      8 C         140.6857  143.7586  163.3720 C.3     1  UNL1        0.0901
      9 C         142.4798  139.4947  164.2668 C.ar    1  UNL1        0.1672
     10 C         141.6708  140.7161  163.9448 C.ar    1  UNL1        0.0537
     11 C         141.4655  141.7759  164.9862 C.ar    1  UNL1        0.0510
     12 C         142.0692  141.6143  166.3498 C.ar    1  UNL1        0.0170
     13 C         142.8782  140.3929  166.6719 C.ar    1  UNL1        0.0340
     14 C         143.0835  139.3331  165.6304 C.ar    1  UNL1        0.1739
     15 F         143.8925  138.1117  165.9526 F       1  UNL1       -0.2010
     16 C         143.8345  138.5376  162.2671 C.3     1  UNL1        0.2526
     17 O         142.6850  138.4349  163.2253 O.3     1  UNL1       -0.4691
     18 C         141.0761  145.4188  159.8854 C.3     1  UNL1        0.0731
     19 C         140.4777  144.7012  158.7120 C.3     1  UNL1        0.0294
     20 C         140.3884  143.2038  158.7146 C.3     1  UNL1        0.0666
     21 S         139.0605  142.5320  158.9030 S.3     1  UNL1       -0.0756
     22 C         138.5876  142.1790  160.2821 C.ar    1  UNL1        0.1933
     23 N         137.6317  142.9777  161.1177 N.ar    1  UNL1       -0.1221
     24 N         137.4409  142.2578  162.4197 N.ar    1  UNL1       -0.1266
     25 C         138.2789  141.0141  162.3888 C.ar    1  UNL1        0.1862
     26 N         138.9876  140.9654  161.0677 N.ar    1  UNL1       -0.2872
     27 C         139.9307  139.8916  160.6121 C.3     1  UNL1        0.1340
     28 C         138.3888  139.9975  163.4863 C.ar    1  UNL1        0.1362
     29 C         138.0595  140.3801  164.8987 C.ar    1  UNL1        0.1211
     30 N         138.1695  139.3634  165.9962 N.ar    1  UNL1       -0.2390
     31 C         138.6088  137.9642  165.6811 C.ar    1  UNL1        0.1195
     32 C         138.9382  137.5816  164.2686 C.ar    1  UNL1        0.1196
     33 N         138.8282  138.5982  163.1711 N.ar    1  UNL1       -0.2375
@<TRIPOS>BOND
     1    16    17    1
     2    17     9    1
     3     9    10   ar
     4    10    11   ar
     5    11     1    1
     6     1     2    1
     7     2     3    1
     8     3     4    1
     9     4     5    1
    10     5     6    1
    11     6    18    1
    12    18    19    1
    13    19    20    1
    14    20    21    1
    15    21    22    1
    16    22    23   ar
    17    23    24   ar
    18    24    25   ar
    19    25    28    1
    20    28    29   ar
    21    29    30   ar
    22    30    31   ar
    23    31    32   ar
    24    32    33   ar
    25    25    26   ar
    26    26    27    1
    27     6     7    1
    28     7     8    1
    29    11    12   ar
    30    12    13   ar
    31    13    14   ar
    32    14    15    1
    33    14     9   ar
    34     8     1    1
    35     8     4    1
    36    26    22   ar
    37    33    28   ar
@<TRIPOS>MOLECULE
*****
 33 37 0 0 0
SMALL
GASTEIGER

@<TRIPOS>ATOM
      1 N         138.7790  142.3019  163.6169 N.pl3   1  UNL1       -0.3076
      2 C         137.5980  143.1076  163.1629 C.3     1  UNL1        0.0909
      3 C         138.0889  144.4704  162.7732 C.3     1  UNL1        0.0245
      4 C         139.5733  144.5069  162.9863 C.3     1  UNL1        0.0372
      5 C         140.7941  145.3716  162.8772 C.3     1  UNL1        0.0738
      6 N         141.9749  144.5658  163.3311 N.3     1  UNL1       -0.2712
      7 C         141.4841  143.2031  163.7208 C.3     1  UNL1        0.0921
      8 C         139.9998  143.1666  163.5077 C.3     1  UNL1        0.0901
      9 C         139.3279  138.3734  163.7443 C.ar    1  UNL1        0.1672
     10 C         139.3617  139.7945  163.2653 C.ar    1  UNL1        0.0537
     11 C         138.7451  140.8808  164.0959 C.ar    1  UNL1        0.0510
     12 C         138.0947  140.5460  165.4054 C.ar    1  UNL1        0.0170
     13 C         138.0609  139.1249  165.8843 C.ar    1  UNL1        0.0340
     14 C         138.6775  138.0386  165.0538 C.ar    1  UNL1        0.1739
     15 F         138.6437  136.6175  165.5328 F       1  UNL1       -0.2010
     16 C         141.3466  137.4383  162.4023 C.3     1  UNL1        0.2526
     17 O         139.9445  137.2872  162.9137 O.3     1  UNL1       -0.4691
     18 C         143.3971  145.0396  163.3858 C.3     1  UNL1        0.0731
     19 C         144.4737  144.2631  162.6873 C.3     1  UNL1        0.0294
     20 C         144.2920  142.7971  162.4264 C.3     1  UNL1        0.0666
     21 S         145.0639  141.7913  163.2281 S.3     1  UNL1       -0.0756
     22 C         144.3432  140.8618  164.1590 C.ar    1  UNL1        0.1933
     23 N         144.1073  139.3975  163.9349 N.ar    1  UNL1       -0.1221
     24 N         143.3502  138.8640  165.1148 N.ar    1  UNL1       -0.1266
     25 C         143.1182  139.9986  166.0682 C.ar    1  UNL1        0.1862
     26 N         143.7319  141.2333  165.4774 N.ar    1  UNL1       -0.2872
     27 C         143.7339  142.5996  166.0965 C.3     1  UNL1        0.1340
     28 C         142.3988  139.9135  167.3816 C.ar    1  UNL1        0.1362
     29 C         141.0143  140.4746  167.5162 C.ar    1  UNL1        0.1211
     30 N         140.2949  140.3895  168.8297 N.ar    1  UNL1       -0.2390
     31 C         140.9601  139.7432  170.0087 C.ar    1  UNL1        0.1195
     32 C         142.3447  139.1821  169.8741 C.ar    1  UNL1        0.1196
     33 N         143.0641  139.2672  168.5606 N.ar    1  UNL1       -0.2375
@<TRIPOS>BOND
     1    16    17    1
     2    17     9    1
     3     9    10   ar
     4    10    11   ar
     5    11     1    1
     6     1     2    1
     7     2     3    1
     8     3     4    1
     9     4     5    1
    10     5     6    1
    11     6    18    1
    12    18    19    1
    13    19    20    1
    14    20    21    1
    15    21    22    1
    16    22    23   ar
    17    23    24   ar
    18    24    25   ar
    19    25    28    1
    20    28    29   ar
    21    29    30   ar
    22    30    31   ar
    23    31    32   ar
    24    32    33   ar
    25    25    26   ar
    26    26    27    1
    27     6     7    1
    28     7     8    1
    29    11    12   ar
    30    12    13   ar
    31    13    14   ar
    32    14    15    1
    33    14     9   ar
    34     8     1    1
    35     8     4    1
    36    26    22   ar
    37    33    28   ar
@<TRIPOS>MOLECULE
*****
 33 37 0 0 0
SMALL
GASTEIGER

@<TRIPOS>ATOM
      1 N         139.7699  139.4202  165.0385 N.pl3   1  UNL1       -0.3076
      2 C         139.3726  138.1603  164.3281 C.3     1  UNL1        0.0909
      3 C         138.5684  138.5427  163.1210 C.3     1  UNL1        0.0245
      4 C         138.4688  140.0389  163.0853 C.3     1  UNL1        0.0372
      5 C         137.9102  141.2000  162.3173 C.3     1  UNL1        0.0738
      6 N         138.3075  142.4599  163.0277 N.3     1  UNL1       -0.2712
      7 C         139.1116  142.0776  164.2348 C.3     1  UNL1        0.0921
      8 C         139.2113  140.5813  164.2704 C.3     1  UNL1        0.0901
      9 C         140.7668  140.0837  168.8222 C.ar    1  UNL1        0.1672
     10 C         139.9537  139.9995  167.5645 C.ar    1  UNL1        0.0537
     11 C         140.5831  139.5044  166.2961 C.ar    1  UNL1        0.0510
     12 C         142.0256  139.0933  166.2855 C.ar    1  UNL1        0.0170
     13 C         142.8387  139.1775  167.5432 C.ar    1  UNL1        0.0340
     14 C         142.2093  139.6727  168.8115 C.ar    1  UNL1        0.1739
     15 F         143.0225  139.7568  170.0692 F       1  UNL1       -0.2010
     16 C         140.4259  141.9676  170.5786 C.3     1  UNL1        0.2526
     17 O         140.1373  140.5789  170.0905 O.3     1  UNL1       -0.4691
     18 C         137.9614  143.8569  162.6052 C.3     1  UNL1        0.0731
     19 C         138.8329  145.0042  163.0224 C.3     1  UNL1        0.0294
     20 C         139.4547  145.8901  161.9838 C.3     1  UNL1        0.0666
     21 S         140.5174  145.3480  161.0745 S.3     1  UNL1       -0.0756
     22 C         141.4440  144.2733  161.5608 C.ar    1  UNL1        0.1933
     23 N         142.5111  144.4342  162.6027 N.ar    1  UNL1       -0.1221
     24 N         143.1927  143.1094  162.7765 N.ar    1  UNL1       -0.1266
     25 C         142.5470  142.1297  161.8421 C.ar    1  UNL1        0.1862
     26 N         141.4662  142.8491  161.0907 N.ar    1  UNL1       -0.2872
     27 C         140.5657  142.2494  160.0517 C.3     1  UNL1        0.1340
     28 C         142.9170  140.6844  161.6863 C.ar    1  UNL1        0.1362
     29 C         143.8785  140.2679  160.6131 C.ar    1  UNL1        0.1211
     30 N         144.2485  138.8225  160.4574 N.ar    1  UNL1       -0.2390
     31 C         143.6569  137.7938  161.3748 C.ar    1  UNL1        0.1195
     32 C         142.6953  138.2104  162.4480 C.ar    1  UNL1        0.1196
     33 N         142.3253  139.6556  162.6038 N.ar    1  UNL1       -0.2375
@<TRIPOS>BOND
     1    16    17    1
     2    17     9    1
     3     9    10   ar
     4    10    11   ar
     5    11     1    1
     6     1     2    1
     7     2     3    1
     8     3     4    1
     9     4     5    1
    10     5     6    1
    11     6    18    1
    12    18    19    1
    13    19    20    1
    14    20    21    1
    15    21    22    1
    16    22    23   ar
    17    23    24   ar
    18    24    25   ar
    19    25    28    1
    20    28    29   ar
    21    29    30   ar
    22    30    31   ar
    23    31    32   ar
    24    32    33   ar
    25    25    26   ar
    26    26    27    1
    27     6     7    1
    28     7     8    1
    29    11    12   ar
    30    12    13   ar
    31    13    14   ar
    32    14    15    1
    33    14     9   ar
    34     8     1    1
    35     8     4    1
    36    26    22   ar
    37    33    28   ar
@<TRIPOS>MOLECULE
*****
 33 37 0 0 0
SMALL
GASTEIGER

@<TRIPOS>ATOM
      1 N         143.0781  141.4243  166.2801 N.pl3   1  UNL1       -0.3076
      2 C         143.7217  142.7713  166.1342 C.3     1  UNL1        0.0909
      3 C         144.4288  142.8063  164.8118 C.3     1  UNL1        0.0245
      4 C         144.2223  141.4809  164.1404 C.3     1  UNL1        0.0372
      5 C         144.5316  140.6834  162.9083 C.3     1  UNL1        0.0738
      6 N         143.8880  139.3364  163.0543 N.3     1  UNL1       -0.2712
      7 C         143.1809  139.3014  164.3766 C.3     1  UNL1        0.0921
      8 C         143.3875  140.6268  165.0479 C.3     1  UNL1        0.0901
      9 C         140.0717  139.9538  168.4131 C.ar    1  UNL1        0.1672
     10 C         140.8824  140.4213  167.2408 C.ar    1  UNL1        0.0537
     11 C         142.2675  140.9569  167.4524 C.ar    1  UNL1        0.0510
     12 C         142.8419  141.0249  168.8364 C.ar    1  UNL1        0.0170
     13 C         142.0311  140.5574  170.0087 C.ar    1  UNL1        0.0340
     14 C         140.6461  140.0219  169.7971 C.ar    1  UNL1        0.1739
     15 F         139.8354  139.5544  170.9694 F       1  UNL1       -0.2010
     16 C         138.2462  138.9988  166.8302 C.3     1  UNL1        0.2526
     17 O         138.6867  139.4183  168.2013 O.3     1  UNL1       -0.4691
     18 C         143.9421  138.2203  162.0536 C.3     1  UNL1        0.0731
     19 C         143.7265  138.5077  160.5972 C.3     1  UNL1        0.0294
     20 C         142.5393  137.9289  159.8863 C.3     1  UNL1        0.0666
     21 S         141.2408  138.6796  159.8612 S.3     1  UNL1       -0.0756
     22 C         140.6951  139.2765  161.1245 C.ar    1  UNL1        0.1933
     23 N         140.2061  138.5144  162.3203 N.ar    1  UNL1       -0.1221
     24 N         139.7514  139.5072  163.3487 N.ar    1  UNL1       -0.1266
     25 C         139.9594  140.8830  162.7884 C.ar    1  UNL1        0.1862
     26 N         140.5426  140.7404  161.4138 N.ar    1  UNL1       -0.2872
     27 C         140.9091  141.8645  160.4906 C.3     1  UNL1        0.1340
     28 C         139.6402  142.1747  163.4811 C.ar    1  UNL1        0.1362
     29 C         140.7498  143.0637  163.9588 C.ar    1  UNL1        0.1211
     30 N         140.4306  144.3554  164.6515 N.ar    1  UNL1       -0.2390
     31 C         139.0017  144.7579  164.8664 C.ar    1  UNL1        0.1195
     32 C         137.8920  143.8688  164.3887 C.ar    1  UNL1        0.1196
     33 N         138.2112  142.5772  163.6961 N.ar    1  UNL1       -0.2375
@<TRIPOS>BOND
     1    16    17    1
     2    17     9    1
     3     9    10   ar
     4    10    11   ar
     5    11     1    1
     6     1     2    1
     7     2     3    1
     8     3     4    1
     9     4     5    1
    10     5     6    1
    11     6    18    1
    12    18    19    1
    13    19    20    1
    14    20    21    1
    15    21    22    1
    16    22    23   ar
    17    23    24   ar
    18    24    25   ar
    19    25    28    1
    20    28    29   ar
    21    29    30   ar
    22    30    31   ar
    23    31    32   ar
    24    32    33   ar
    25    25    26   ar
    26    26    27    1
    27     6     7    1
    28     7     8    1
    29    11    12   ar
    30    12    13   ar
    31    13    14   ar
    32    14    15    1
    33    14     9   ar
    34     8     1    1
    35     8     4    1
    36    26    22   ar
    37    33    28   ar
@<TRIPOS>MOLECULE
*****
 33 37 0 0 0
SMALL
GASTEIGER

@<TRIPOS>ATOM
      1 N         139.6861  142.9724  165.7457 N.pl3   1  UNL1       -0.3076
      2 C         138.9347  144.2566  165.5555 C.3     1  UNL1        0.0909
      3 C         137.9147  144.0414  164.4769 C.3     1  UNL1        0.0245
      4 C         138.0357  142.6241  164.0006 C.3     1  UNL1        0.0372
      5 C         137.4801  141.6152  163.0397 C.3     1  UNL1        0.0738
      6 N         138.2315  140.3311  163.2300 N.3     1  UNL1       -0.2712
      7 C         139.2515  140.5463  164.3084 C.3     1  UNL1        0.0921
      8 C         139.1305  141.9635  164.7848 C.3     1  UNL1        0.0901
      9 C         141.6466  142.6096  169.1772 C.ar    1  UNL1        0.1672
     10 C         140.5347  142.8438  168.1979 C.ar    1  UNL1        0.0537
     11 C         140.7980  142.7382  166.7250 C.ar    1  UNL1        0.0510
     12 C         142.1730  142.3984  166.2313 C.ar    1  UNL1        0.0170
     13 C         143.2848  142.1642  167.2106 C.ar    1  UNL1        0.0340
     14 C         143.0216  142.2698  168.6836 C.ar    1  UNL1        0.1739
     15 F         144.1335  142.0356  169.6628 F       1  UNL1       -0.2010
     16 C         141.1484  141.4752  171.4609 C.3     1  UNL1        0.2526
     17 O         141.3832  142.7152  170.6501 O.3     1  UNL1       -0.4691
     18 C         138.0030  139.0556  162.4744 C.3     1  UNL1        0.0731
     19 C         137.2705  139.0801  161.1657 C.3     1  UNL1        0.0294
     20 C         137.8635  139.7943  159.9875 C.3     1  UNL1        0.0666
     21 S         139.2950  139.5552  159.6082 S.3     1  UNL1       -0.0756
     22 C         140.3989  140.0893  160.4718 C.ar    1  UNL1        0.1933
     23 N         141.4415  139.2722  161.1758 N.ar    1  UNL1       -0.1221
     24 N         142.3411  140.2122  161.9222 N.ar    1  UNL1       -0.1266
     25 C         141.8546  141.6102  161.6796 C.ar    1  UNL1        0.1862
     26 N         140.6542  141.5342  160.7832 N.ar    1  UNL1       -0.2872
     27 C         139.8504  142.6988  160.2856 C.3     1  UNL1        0.1340
     28 C         142.4617  142.8640  162.2358 C.ar    1  UNL1        0.1362
     29 C         143.8914  143.2027  161.9342 C.ar    1  UNL1        0.1211
     30 N         144.4985  144.4566  162.4904 N.ar    1  UNL1       -0.2390
     31 C         143.6758  145.3717  163.3481 C.ar    1  UNL1        0.1195
     32 C         142.2460  145.0330  163.6496 C.ar    1  UNL1        0.1196
     33 N         141.6389  143.7792  163.0935 N.ar    1  UNL1       -0.2375
@<TRIPOS>BOND
     1    16    17    1
     2    17     9    1
     3     9    10   ar
     4    10    11   ar
     5    11     1    1
     6     1     2    1
     7     2     3    1
     8     3     4    1
     9     4     5    1
    10     5     6    1
    11     6    18    1
    12    18    19    1
    13    19    20    1
    14    20    21    1
    15    21    22    1
    16    22    23   ar
    17    23    24   ar
    18    24    25   ar
    19    25    28    1
    20    28    29   ar
    21    29    30   ar
    22    30    31   ar
    23    31    32   ar
    24    32    33   ar
    25    25    26   ar
    26    26    27    1
    27     6     7    1
    28     7     8    1
    29    11    12   ar
    30    12    13   ar
    31    13    14   ar
    32    14    15    1
    33    14     9   ar
    34     8     1    1
    35     8     4    1
    36    26    22   ar
    37    33    28   ar
@<TRIPOS>MOLECULE
*****
 33 37 0 0 0
SMALL
GASTEIGER

@<TRIPOS>ATOM
      1 N         143.5115  142.3892  161.6766 N.pl3   1  UNL1       -0.3076
      2 C         144.9076  142.6332  162.1677 C.3     1  UNL1        0.0909
      3 C         145.3077  141.4685  163.0242 C.3     1  UNL1        0.0245
      4 C         144.1588  140.5049  163.0624 C.3     1  UNL1        0.0372
      5 C         143.6960  139.1895  163.6153 C.3     1  UNL1        0.0738
      6 N         142.2999  138.9457  163.1241 N.3     1  UNL1       -0.2712
      7 C         141.8998  140.1102  162.2677 C.3     1  UNL1        0.0921
      8 C         143.0487  141.0739  162.2295 C.3     1  UNL1        0.0901
      9 C         140.8453  145.0763  160.4841 C.ar    1  UNL1        0.1672
     10 C         141.6394  144.1648  161.3723 C.ar    1  UNL1        0.0537
     11 C         142.7175  143.3007  160.7884 C.ar    1  UNL1        0.0510
     12 C         143.0015  143.3479  159.3163 C.ar    1  UNL1        0.0170
     13 C         142.2074  144.2594  158.4281 C.ar    1  UNL1        0.0340
     14 C         141.1294  145.1235  159.0120 C.ar    1  UNL1        0.1739
     15 F         140.3354  146.0350  158.1238 F       1  UNL1       -0.2010
     16 C         139.2027  145.6236  162.4212 C.3     1  UNL1        0.2526
     17 O         139.7673  145.9404  161.0681 O.3     1  UNL1       -0.4691
     18 C         141.4526  137.7476  163.4349 C.3     1  UNL1        0.0731
     19 C         140.1159  137.5826  162.7746 C.3     1  UNL1        0.0294
     20 C         138.8586  137.8277  163.5550 C.3     1  UNL1        0.0666
     21 S         138.6214  139.1635  164.1949 S.3     1  UNL1       -0.0756
     22 C         138.6898  139.3032  165.6868 C.ar    1  UNL1        0.1933
     23 N         137.7334  138.7016  166.6734 N.ar    1  UNL1       -0.1221
     24 N         138.1791  139.0955  168.0505 N.ar    1  UNL1       -0.1266
     25 C         139.4109  139.9406  167.9149 C.ar    1  UNL1        0.1862
     26 N         139.7265  140.0689  166.4541 N.ar    1  UNL1       -0.2872
     27 C         140.8770  140.8295  165.8641 C.3     1  UNL1        0.1340
     28 C         140.1903  140.5503  169.0422 C.ar    1  UNL1        0.1362
     29 C         139.8373  141.9190  169.5439 C.ar    1  UNL1        0.1211
     30 N         140.6168  142.5288  170.6712 N.ar    1  UNL1       -0.2390
     31 C         141.7492  141.7697  171.2967 C.ar    1  UNL1        0.1195
     32 C         142.1023  140.4009  170.7950 C.ar    1  UNL1        0.1196
     33 N         141.3229  139.7911  169.6677 N.ar    1  UNL1       -0.2375
@<TRIPOS>BOND
     1    16    17    1
     2    17     9    1
     3     9    10   ar
     4    10    11   ar
     5    11     1    1
     6     1     2    1
     7     2     3    1
     8     3     4    1
     9     4     5    1
    10     5     6    1
    11     6    18    1
    12    18    19    1
    13    19    20    1
    14    20    21    1
    15    21    22    1
    16    22    23   ar
    17    23    24   ar
    18    24    25   ar
    19    25    28    1
    20    28    29   ar
    21    29    30   ar
    22    30    31   ar
    23    31    32   ar
    24    32    33   ar
    25    25    26   ar
    26    26    27    1
    27     6     7    1
    28     7     8    1
    29    11    12   ar
    30    12    13   ar
    31    13    14   ar
    32    14    15    1
    33    14     9   ar
    34     8     1    1
    35     8     4    1
    36    26    22   ar
    37    33    28   ar
@<TRIPOS>MOLECULE
*****
 33 37 0 0 0
SMALL
GASTEIGER

@<TRIPOS>ATOM
      1 N         139.7933  139.3833  165.8786 N.pl3   1  UNL1       -0.3076
      2 C         138.6484  138.4144  165.8978 C.3     1  UNL1        0.0909
      3 C         138.8948  137.3846  164.8353 C.3     1  UNL1        0.0245
      4 C         140.1920  137.7171  164.1595 C.3     1  UNL1        0.0372
      5 C         141.1461  137.2861  163.0852 C.3     1  UNL1        0.0738
      6 N         142.2909  138.2550  163.0661 N.3     1  UNL1       -0.2712
      7 C         142.0446  139.2848  164.1285 C.3     1  UNL1        0.0921
      8 C         140.7473  138.9523  164.8043 C.3     1  UNL1        0.0901
      9 C         140.0426  141.5978  169.1625 C.ar    1  UNL1        0.1672
     10 C         139.8802  140.4070  168.2649 C.ar    1  UNL1        0.0537
     11 C         139.9557  140.5741  166.7762 C.ar    1  UNL1        0.0510
     12 C         140.1937  141.9320  166.1850 C.ar    1  UNL1        0.0170
     13 C         140.3562  143.1227  167.0826 C.ar    1  UNL1        0.0340
     14 C         140.2806  142.9557  168.5713 C.ar    1  UNL1        0.1739
     15 F         140.4430  144.1465  169.4689 F       1  UNL1       -0.2010
     16 C         141.2023  141.0918  171.4317 C.3     1  UNL1        0.2526
     17 O         139.9670  141.4307  170.6512 O.3     1  UNL1       -0.4691
     18 C         143.4744  138.2032  162.1460 C.3     1  UNL1        0.0731
     19 C         143.3442  137.5727  160.7912 C.3     1  UNL1        0.0294
     20 C         142.9640  138.4112  159.6071 C.3     1  UNL1        0.0666
     21 S         141.5234  138.5366  159.2083 S.3     1  UNL1       -0.0756
     22 C         140.5733  139.3192  160.0656 C.ar    1  UNL1        0.1933
     23 N         139.2480  138.8388  160.5781 N.ar    1  UNL1       -0.1221
     24 N         138.6373  139.9424  161.3901 N.ar    1  UNL1       -0.1266
     25 C         139.5852  141.1048  161.3793 C.ar    1  UNL1        0.1862
     26 N         140.7817  140.7197  160.5608 N.ar    1  UNL1       -0.2872
     27 C         141.9769  141.5834  160.2857 C.3     1  UNL1        0.1340
     28 C         139.3738  142.4213  162.0665 C.ar    1  UNL1        0.1362
     29 C         138.0341  143.0928  162.0049 C.ar    1  UNL1        0.1211
     30 N         137.8227  144.4093  162.6922 N.ar    1  UNL1       -0.2390
     31 C         138.9512  145.0542  163.4410 C.ar    1  UNL1        0.1195
     32 C         140.2910  144.3826  163.5026 C.ar    1  UNL1        0.1196
     33 N         140.5024  143.0661  162.8154 N.ar    1  UNL1       -0.2375
@<TRIPOS>BOND
     1    16    17    1
     2    17     9    1
     3     9    10   ar
     4    10    11   ar
     5    11     1    1
     6     1     2    1
     7     2     3    1
     8     3     4    1
     9     4     5    1
    10     5     6    1
    11     6    18    1
    12    18    19    1
    13    19    20    1
    14    20    21    1
    15    21    22    1
    16    22    23   ar
    17    23    24   ar
    18    24    25   ar
    19    25    28    1
    20    28    29   ar
    21    29    30   ar
    22    30    31   ar
    23    31    32   ar
    24    32    33   ar
    25    25    26   ar
    26    26    27    1
    27     6     7    1
    28     7     8    1
    29    11    12   ar
    30    12    13   ar
    31    13    14   ar
    32    14    15    1
    33    14     9   ar
    34     8     1    1
    35     8     4    1
    36    26    22   ar
    37    33    28   ar
@<TRIPOS>MOLECULE
*****
 33 37 0 0 0
SMALL
GASTEIGER

@<TRIPOS>ATOM
      1 N         142.8812  141.6493  165.5206 N.pl3   1  UNL1       -0.3076
      2 C         143.7565  142.8561  165.6860 C.3     1  UNL1        0.0909
      3 C         144.7059  142.9027  164.5256 C.3     1  UNL1        0.0245
      4 C         144.4172  141.7246  163.6430 C.3     1  UNL1        0.0372
      5 C         144.8256  141.0253  162.3803 C.3     1  UNL1        0.0738
      6 N         143.9502  139.8186  162.2150 N.3     1  UNL1       -0.2712
      7 C         143.0009  139.7720  163.3754 C.3     1  UNL1        0.0921
      8 C         143.2895  140.9500  164.2580 C.3     1  UNL1        0.0901
      9 C         139.4501  140.1554  166.8420 C.ar    1  UNL1        0.1672
     10 C         140.5421  140.5873  165.9087 C.ar    1  UNL1        0.0537
     11 C         141.7893  141.2175  166.4540 C.ar    1  UNL1        0.0510
     12 C         141.9444  141.4160  167.9327 C.ar    1  UNL1        0.0170
     13 C         140.8524  140.9842  168.8660 C.ar    1  UNL1        0.0340
     14 C         139.6052  140.3540  168.3207 C.ar    1  UNL1        0.1739
     15 F         138.5133  139.9222  169.2541 F       1  UNL1       -0.2010
     16 C         138.0253  138.0371  166.3598 C.3     1  UNL1        0.2526
     17 O         138.2030  139.5252  166.2966 O.3     1  UNL1       -0.4691
     18 C         144.0132  138.8316  161.0872 C.3     1  UNL1        0.0731
     19 C         143.3115  139.1245  159.7942 C.3     1  UNL1        0.0294
     20 C         143.7951  140.2387  158.9141 C.3     1  UNL1        0.0666
     21 S         142.8756  141.3711  158.5643 S.3     1  UNL1       -0.0756
     22 C         142.4616  142.3542  159.6189 C.ar    1  UNL1        0.1933
     23 N         143.1774  143.6249  159.9694 N.ar    1  UNL1       -0.1221
     24 N         142.4173  144.2953  161.0753 N.ar    1  UNL1       -0.1266
     25 C         141.2317  143.4388  161.4083 C.ar    1  UNL1        0.1862
     26 N         141.2591  142.2392  160.5082 N.ar    1  UNL1       -0.2872
     27 C         140.2595  141.1208  160.4990 C.3     1  UNL1        0.1340
     28 C         140.1999  143.7306  162.4571 C.ar    1  UNL1        0.1362
     29 C         140.5886  143.7538  163.9056 C.ar    1  UNL1        0.1211
     30 N         139.5567  144.0457  164.9545 N.ar    1  UNL1       -0.2390
     31 C         138.1362  144.3144  164.5548 C.ar    1  UNL1        0.1195
     32 C         137.7474  144.2912  163.1062 C.ar    1  UNL1        0.1196
     33 N         138.7792  143.9993  162.0574 N.ar    1  UNL1       -0.2375
@<TRIPOS>BOND
     1    16    17    1
     2    17     9    1
     3     9    10   ar
     4    10    11   ar
     5    11     1    1
     6     1     2    1
     7     2     3    1
     8     3     4    1
     9     4     5    1
    10     5     6    1
    11     6    18    1
    12    18    19    1
    13    19    20    1
    14    20    21    1
    15    21    22    1
    16    22    23   ar
    17    23    24   ar
    18    24    25   ar
    19    25    28    1
    20    28    29   ar
    21    29    30   ar
    22    30    31   ar
    23    31    32   ar
    24    32    33   ar
    25    25    26   ar
    26    26    27    1
    27     6     7    1
    28     7     8    1
    29    11    12   ar
    30    12    13   ar
    31    13    14   ar
    32    14    15    1
    33    14     9   ar
    34     8     1    1
    35     8     4    1
    36    26    22   ar
    37    33    28   ar
@<TRIPOS>MOLECULE
*****
 33 37 0 0 0
SMALL
GASTEIGER

@<TRIPOS>ATOM
      1 N         139.2690  142.6049  164.2908 N.pl3   1  UNL1       -0.3076
      2 C         139.3070  143.7239  165.2891 C.3     1  UNL1        0.0909
      3 C         139.5140  145.0067  164.5397 C.3     1  UNL1        0.0245
      4 C         139.6040  144.6805  163.0783 C.3     1  UNL1        0.0372
      5 C         139.7876  145.2718  161.7120 C.3     1  UNL1        0.0738
      6 N         139.7496  144.1528  160.7139 N.3     1  UNL1       -0.2712
      7 C         139.5426  142.8700  161.4632 C.3     1  UNL1        0.0921
      8 C         139.4526  143.1962  162.9245 C.3     1  UNL1        0.0901
      9 C         138.7944  138.6950  163.8034 C.ar    1  UNL1        0.1672
     10 C         138.9829  140.1499  163.4904 C.ar    1  UNL1        0.0537
     11 C         139.0806  141.1501  164.6039 C.ar    1  UNL1        0.0510
     12 C         138.9897  140.6956  166.0305 C.ar    1  UNL1        0.0170
     13 C         138.8013  139.2407  166.3435 C.ar    1  UNL1        0.0340
     14 C         138.7036  138.2404  165.2300 C.ar    1  UNL1        0.1739
     15 F         138.5152  136.7856  165.5430 F       1  UNL1       -0.2010
     16 C         139.3378  137.9828  161.3646 C.3     1  UNL1        0.2526
     17 O         138.6968  137.6948  162.6898 O.3     1  UNL1       -0.4691
     18 C         139.8934  144.2922  159.2273 C.3     1  UNL1        0.0731
     19 C         141.2541  144.2458  158.5978 C.3     1  UNL1        0.0294
     20 C         142.0779  142.9952  158.6835 C.3     1  UNL1        0.0666
     21 S         143.3194  142.9711  159.5250 S.3     1  UNL1       -0.0756
     22 C         143.2123  143.0043  161.0208 C.ar    1  UNL1        0.1933
     23 N         143.2712  144.2310  161.8820 N.ar    1  UNL1       -0.1221
     24 N         143.1227  143.8015  163.3115 N.ar    1  UNL1       -0.1266
     25 C         142.9720  142.3093  163.3338 C.ar    1  UNL1        0.1862
     26 N         143.0274  141.8166  161.9181 N.ar    1  UNL1       -0.2872
     27 C         142.9172  140.3871  161.4772 C.3     1  UNL1        0.1340
     28 C         142.7968  141.4590  164.5571 C.ar    1  UNL1        0.1362
     29 C         142.7895  142.0930  165.9164 C.ar    1  UNL1        0.1211
     30 N         142.6142  141.2426  167.1396 N.ar    1  UNL1       -0.2390
     31 C         142.4463  139.7583  167.0035 C.ar    1  UNL1        0.1195
     32 C         142.4536  139.1243  165.6440 C.ar    1  UNL1        0.1196
     33 N         142.6288  139.9745  164.4208 N.ar    1  UNL1       -0.2375
@<TRIPOS>BOND
     1    16    17    1
     2    17     9    1
     3     9    10   ar
     4    10    11   ar
     5    11     1    1
     6     1     2    1
     7     2     3    1
     8     3     4    1
     9     4     5    1
    10     5     6    1
    11     6    18    1
    12    18    19    1
    13    19    20    1
    14    20    21    1
    15    21    22    1
    16    22    23   ar
    17    23    24   ar
    18    24    25   ar
    19    25    28    1
    20    28    29   ar
    21    29    30   ar
    22    30    31   ar
    23    31    32   ar
    24    32    33   ar
    25    25    26   ar
    26    26    27    1
    27     6     7    1
    28     7     8    1
    29    11    12   ar
    30    12    13   ar
    31    13    14   ar
    32    14    15    1
    33    14     9   ar
    34     8     1    1
    35     8     4    1
    36    26    22   ar
    37    33    28   ar
