@<TRIPOS>MOLECULE
*****
 33 38 0 0 0
SMALL
GASTEIGER

@<TRIPOS>ATOM
      1 C         138.5207  142.2812  160.8180 C.ar    1  UNL1        0.0625
      2 C         138.4645  142.3691  159.3217 C.ar    1  UNL1        0.0158
      3 C         138.3907  141.1169  158.4991 C.ar    1  UNL1        0.0014
      4 C         138.3732  139.7769  159.1729 C.ar    1  UNL1        0.0016
      5 C         138.4294  139.6890  160.6693 C.ar    1  UNL1        0.0189
      6 C         138.4118  138.3490  161.3430 C.ar    1  UNL1        0.0032
      7 C         138.4680  138.2611  162.8394 C.ar    1  UNL1        0.0223
      8 C         138.5418  139.5133  163.6619 C.ar    1  UNL1        0.1188
      9 N         138.5594  140.8532  162.9882 N.ar    1  UNL1       -0.2410
     10 C         138.5032  140.9412  161.4918 C.ar    1  UNL1        0.0944
     11 C         138.5980  139.4254  165.1584 C.ar    1  UNL1        0.2041
     12 N         137.6309  138.6866  166.0352 N.ar    1  UNL1       -0.1253
     13 N         138.0664  138.8656  167.4594 N.ar    1  UNL1       -0.1237
     14 C         139.3028  139.7149  167.4627 C.ar    1  UNL1        0.2218
     15 C         140.1719  140.2179  168.5771 C.ar    1  UNL1        0.1907
     16 C         141.3695  141.0669  168.2693 C.ar    1  UNL1        0.1067
     17 C         141.6981  141.4129  166.8471 C.ar    1  UNL1        0.1382
     18 N         140.8290  140.9099  165.7329 N.ar    1  UNL1       -0.1592
     19 N         139.6314  140.0609  166.0407 N.ar    1  UNL1       -0.1869
     20 N         142.2386  141.5699  169.3835 N.pl3   1  UNL1       -0.2987
     21 C         143.4363  142.4190  169.0757 C.3     1  UNL1        0.1124
     22 C         141.9100  141.2239  170.8056 C.3     1  UNL1        0.1387
     23 C         140.7124  140.3749  171.1134 C.3     1  UNL1        0.2269
     24 O         139.8433  139.8719  169.9991 O.3     1  UNL1       -0.4692
     25 N         138.5945  143.5334  161.6407 N.pl3   1  UNL1       -0.3328
     26 H         137.7894  144.0846  161.7714 H       1  UNL1        0.1468
     27 C         143.7968  145.1821  164.1342 C.3     1  UNL1        0.0896
     28 N         142.4962  144.7700  163.5108 N.3     1  UNL1       -0.2714
     29 C         141.2699  144.6228  164.3620 C.3     1  UNL1        0.0738
     30 C         139.9693  144.2106  163.7386 C.3     1  UNL1        0.0368
     31 C         139.8951  143.9456  162.2641 C.3     1  UNL1        0.0718
     32 C         141.1215  144.0927  161.4129 C.3     1  UNL1        0.0368
     33 C         142.4220  144.5049  162.0363 C.3     1  UNL1        0.0738
@<TRIPOS>BOND
     1    27    28    1
     2    28    29    1
     3    29    30    1
     4    30    31    1
     5    31    25    1
     6    25     1    1
     7     1     2   ar
     8     2     3   ar
     9     3     4   ar
    10     4     5   ar
    11     5     6   ar
    12     6     7   ar
    13     7     8   ar
    14     8    11    1
    15    11    12   ar
    16    12    13   ar
    17    13    14   ar
    18    14    15   ar
    19    15    16   ar
    20    16    17   ar
    21    17    18   ar
    22    18    19   ar
    23    16    20    1
    24    20    21    1
    25    20    22    1
    26    22    23    1
    27    23    24    1
    28     8     9   ar
    29     9    10   ar
    30    31    32    1
    31    32    33    1
    32    33    28    1
    33    10     1   ar
    34    10     5   ar
    35    19    11   ar
    36    19    14   ar
    37    24    15    1
    38    25    26    1
@<TRIPOS>MOLECULE
*****
 33 38 0 0 0
SMALL
GASTEIGER

@<TRIPOS>ATOM
      1 C         141.0476  141.7563  167.2861 C.ar    1  UNL1        0.0625
      2 C         141.1112  142.0810  168.7492 C.ar    1  UNL1        0.0158
      3 C         140.2110  141.3693  169.7152 C.ar    1  UNL1        0.0014
      4 C         139.2472  140.3330  169.2182 C.ar    1  UNL1        0.0016
      5 C         139.1836  140.0082  167.7552 C.ar    1  UNL1        0.0189
      6 C         138.2198  138.9718  167.2582 C.ar    1  UNL1        0.0032
      7 C         138.1561  138.6471  165.7952 C.ar    1  UNL1        0.0223
      8 C         139.0563  139.3587  164.8292 C.ar    1  UNL1        0.1188
      9 N         140.0200  140.3951  165.3261 N.ar    1  UNL1       -0.2410
     10 C         140.0838  140.7199  166.7892 C.ar    1  UNL1        0.0944
     11 C         138.9926  139.0340  163.3661 C.ar    1  UNL1        0.2041
     12 N         138.8067  137.6687  162.7732 N.ar    1  UNL1       -0.1253
     13 N         138.8029  137.8085  161.2797 N.ar    1  UNL1       -0.1237
     14 C         138.9865  139.2601  160.9496 C.ar    1  UNL1        0.2218
     15 C         139.0620  139.9901  159.6414 C.ar    1  UNL1        0.1907
     16 C         139.2547  141.4776  159.6226 C.ar    1  UNL1        0.1067
     17 C         139.3720  142.2350  160.9121 C.ar    1  UNL1        0.1382
     18 N         139.2965  141.5049  162.2202 N.ar    1  UNL1       -0.1592
     19 N         139.1037  140.0175  162.2390 N.ar    1  UNL1       -0.1869
     20 N         139.3303  142.2076  158.3144 N.pl3   1  UNL1       -0.2987
     21 C         139.5230  143.6950  158.2957 C.3     1  UNL1        0.1124
     22 C         139.2130  141.4502  157.0251 C.3     1  UNL1        0.1387
     23 C         139.0202  139.9627  157.0439 C.3     1  UNL1        0.2269
     24 O         138.9447  139.2327  158.3520 O.3     1  UNL1       -0.4692
     25 N         141.9477  142.4679  166.3200 N.pl3   1  UNL1       -0.3328
     26 H         142.9243  142.3646  166.3895 H       1  UNL1        0.1468
     27 C         139.5961  145.9436  162.0318 C.3     1  UNL1        0.0896
     28 N         140.1840  145.0747  163.1038 N.3     1  UNL1       -0.2714
     29 C         139.3802  144.7449  164.3266 C.3     1  UNL1        0.0738
     30 C         139.9682  143.8759  165.3987 C.3     1  UNL1        0.0368
     31 C         141.3598  143.3368  165.2479 C.3     1  UNL1        0.0718
     32 C         142.1636  143.6667  164.0250 C.3     1  UNL1        0.0368
     33 C         141.5756  144.5356  162.9530 C.3     1  UNL1        0.0738
@<TRIPOS>BOND
     1    27    28    1
     2    28    29    1
     3    29    30    1
     4    30    31    1
     5    31    25    1
     6    25     1    1
     7     1     2   ar
     8     2     3   ar
     9     3     4   ar
    10     4     5   ar
    11     5     6   ar
    12     6     7   ar
    13     7     8   ar
    14     8    11    1
    15    11    12   ar
    16    12    13   ar
    17    13    14   ar
    18    14    15   ar
    19    15    16   ar
    20    16    17   ar
    21    17    18   ar
    22    18    19   ar
    23    16    20    1
    24    20    21    1
    25    20    22    1
    26    22    23    1
    27    23    24    1
    28     8     9   ar
    29     9    10   ar
    30    31    32    1
    31    32    33    1
    32    33    28    1
    33    10     1   ar
    34    10     5   ar
    35    19    11   ar
    36    19    14   ar
    37    24    15    1
    38    25    26    1
@<TRIPOS>MOLECULE
*****
 33 38 0 0 0
SMALL
GASTEIGER

@<TRIPOS>ATOM
      1 C         142.5857  139.8474  163.3441 C.ar    1  UNL1        0.0625
      2 C         143.5104  138.9570  164.1200 C.ar    1  UNL1        0.0158
      3 C         144.8868  139.4343  164.4774 C.ar    1  UNL1        0.0014
      4 C         145.3384  140.8021  164.0590 C.ar    1  UNL1        0.0016
      5 C         144.4137  141.6926  163.2832 C.ar    1  UNL1        0.0189
      6 C         144.8654  143.0604  162.8648 C.ar    1  UNL1        0.0032
      7 C         143.9408  143.9510  162.0890 C.ar    1  UNL1        0.0223
      8 C         142.5644  143.4736  161.7315 C.ar    1  UNL1        0.1188
      9 N         142.1127  142.1059  162.1499 N.ar    1  UNL1       -0.2410
     10 C         143.0374  141.2153  162.9257 C.ar    1  UNL1        0.0944
     11 C         141.6396  144.3642  160.9557 C.ar    1  UNL1        0.2041
     12 N         140.4890  145.1447  161.5184 N.ar    1  UNL1       -0.1253
     13 N         139.8414  145.8934  160.3913 N.ar    1  UNL1       -0.1237
     14 C         140.5920  145.5756  159.1321 C.ar    1  UNL1        0.2218
     15 C         140.4069  146.0247  157.7129 C.ar    1  UNL1        0.1907
     16 C         141.3333  145.5286  156.6425 C.ar    1  UNL1        0.1067
     17 C         142.4446  144.5835  156.9913 C.ar    1  UNL1        0.1382
     18 N         142.6296  144.1344  158.4104 N.ar    1  UNL1       -0.1592
     19 N         141.7033  144.6304  159.4809 N.ar    1  UNL1       -0.1869
     20 N         141.1483  145.9777  155.2233 N.pl3   1  UNL1       -0.2987
     21 C         142.0746  145.4817  154.1529 C.3     1  UNL1        0.1124
     22 C         140.0369  146.9228  154.8746 C.3     1  UNL1        0.1387
     23 C         139.1106  147.4189  155.9450 C.3     1  UNL1        0.2269
     24 O         139.2956  146.9698  157.3642 O.3     1  UNL1       -0.4692
     25 N         141.2093  139.3702  162.9866 N.pl3   1  UNL1       -0.3328
     26 H         140.9552  139.2636  162.0415 H       1  UNL1        0.1468
     27 C         137.2522  138.1105  167.3172 C.3     1  UNL1        0.0896
     28 N         138.2415  138.4254  166.2346 N.3     1  UNL1       -0.2714
     29 C         138.7189  137.3399  165.3160 C.3     1  UNL1        0.0738
     30 C         139.7082  137.6549  164.2334 C.3     1  UNL1        0.0368
     31 C         140.2200  139.0553  164.0693 C.3     1  UNL1        0.0718
     32 C         139.7425  140.1408  164.9879 C.3     1  UNL1        0.0368
     33 C         138.7533  139.8259  166.0706 C.3     1  UNL1        0.0738
@<TRIPOS>BOND
     1    27    28    1
     2    28    29    1
     3    29    30    1
     4    30    31    1
     5    31    25    1
     6    25     1    1
     7     1     2   ar
     8     2     3   ar
     9     3     4   ar
    10     4     5   ar
    11     5     6   ar
    12     6     7   ar
    13     7     8   ar
    14     8    11    1
    15    11    12   ar
    16    12    13   ar
    17    13    14   ar
    18    14    15   ar
    19    15    16   ar
    20    16    17   ar
    21    17    18   ar
    22    18    19   ar
    23    16    20    1
    24    20    21    1
    25    20    22    1
    26    22    23    1
    27    23    24    1
    28     8     9   ar
    29     9    10   ar
    30    31    32    1
    31    32    33    1
    32    33    28    1
    33    10     1   ar
    34    10     5   ar
    35    19    11   ar
    36    19    14   ar
    37    24    15    1
    38    25    26    1
@<TRIPOS>MOLECULE
*****
 33 38 0 0 0
SMALL
GASTEIGER

@<TRIPOS>ATOM
      1 C         138.2321  140.2674  164.7921 C.ar    1  UNL1        0.0625
      2 C         138.2426  139.3767  165.9989 C.ar    1  UNL1        0.0158
      3 C         139.1122  139.7152  167.1733 C.ar    1  UNL1        0.0014
      4 C         139.9714  140.9443  167.1408 C.ar    1  UNL1        0.0016
      5 C         139.9609  141.8350  165.9340 C.ar    1  UNL1        0.0189
      6 C         140.8201  143.0641  165.9015 C.ar    1  UNL1        0.0032
      7 C         140.8096  143.9549  164.6947 C.ar    1  UNL1        0.0223
      8 C         139.9400  143.6164  163.5203 C.ar    1  UNL1        0.1188
      9 N         139.0808  142.3874  163.5527 N.ar    1  UNL1       -0.2410
     10 C         139.0912  141.4966  164.7596 C.ar    1  UNL1        0.0944
     11 C         139.9295  144.5072  162.3133 C.ar    1  UNL1        0.2041
     12 N         139.6288  145.9767  162.3047 N.ar    1  UNL1       -0.1253
     13 N         139.7313  146.4624  160.8892 N.ar    1  UNL1       -0.1237
     14 C         140.0954  145.2931  160.0231 C.ar    1  UNL1        0.2218
     15 C         140.3311  145.1726  158.5466 C.ar    1  UNL1        0.1907
     16 C         140.6894  143.8437  157.9503 C.ar    1  UNL1        0.1067
     17 C         140.8118  142.6352  158.8306 C.ar    1  UNL1        0.1382
     18 N         140.5761  142.7557  160.3070 N.ar    1  UNL1       -0.1592
     19 N         140.2178  144.0847  160.9033 N.ar    1  UNL1       -0.1869
     20 N         140.9252  143.7232  156.4739 N.pl3   1  UNL1       -0.2987
     21 C         141.2834  142.3942  155.8777 C.3     1  UNL1        0.1124
     22 C         140.8027  144.9316  155.5938 C.3     1  UNL1        0.1387
     23 C         140.4445  146.2605  156.1901 C.3     1  UNL1        0.2269
     24 O         140.2087  146.3811  157.6665 O.3     1  UNL1       -0.4692
     25 N         137.3624  139.9291  163.6176 N.pl3   1  UNL1       -0.3328
     26 H         136.3823  139.9538  163.7075 H       1  UNL1        0.1468
     27 C         139.8572  138.4249  158.3723 C.3     1  UNL1        0.0896
     28 N         139.2335  138.8009  159.6837 N.3     1  UNL1       -0.2714
     29 C         139.6154  138.0657  160.9340 C.3     1  UNL1        0.0738
     30 C         138.9917  138.4417  162.2454 C.3     1  UNL1        0.0368
     31 C         137.9861  139.5530  162.3063 C.3     1  UNL1        0.0718
     32 C         137.6042  140.2883  161.0558 C.3     1  UNL1        0.0368
     33 C         138.2279  139.9123  159.7445 C.3     1  UNL1        0.0738
@<TRIPOS>BOND
     1    27    28    1
     2    28    29    1
     3    29    30    1
     4    30    31    1
     5    31    25    1
     6    25     1    1
     7     1     2   ar
     8     2     3   ar
     9     3     4   ar
    10     4     5   ar
    11     5     6   ar
    12     6     7   ar
    13     7     8   ar
    14     8    11    1
    15    11    12   ar
    16    12    13   ar
    17    13    14   ar
    18    14    15   ar
    19    15    16   ar
    20    16    17   ar
    21    17    18   ar
    22    18    19   ar
    23    16    20    1
    24    20    21    1
    25    20    22    1
    26    22    23    1
    27    23    24    1
    28     8     9   ar
    29     9    10   ar
    30    31    32    1
    31    32    33    1
    32    33    28    1
    33    10     1   ar
    34    10     5   ar
    35    19    11   ar
    36    19    14   ar
    37    24    15    1
    38    25    26    1
@<TRIPOS>MOLECULE
*****
 33 38 0 0 0
SMALL
GASTEIGER

@<TRIPOS>ATOM
      1 C         141.0394  141.8020  167.0867 C.ar    1  UNL1        0.0625
      2 C         140.9929  142.1703  168.5401 C.ar    1  UNL1        0.0158
      3 C         140.0785  141.4319  169.4720 C.ar    1  UNL1        0.0014
      4 C         139.2106  140.3251  168.9507 C.ar    1  UNL1        0.0016
      5 C         139.2571  139.9569  167.4973 C.ar    1  UNL1        0.0189
      6 C         138.3892  138.8501  166.9759 C.ar    1  UNL1        0.0032
      7 C         138.4356  138.4818  165.5226 C.ar    1  UNL1        0.0223
      8 C         139.3500  139.2203  164.5907 C.ar    1  UNL1        0.1188
      9 N         140.2179  140.3269  165.1120 N.ar    1  UNL1       -0.2410
     10 C         140.1715  140.6953  166.5654 C.ar    1  UNL1        0.0944
     11 C         139.3965  138.8519  163.1373 C.ar    1  UNL1        0.2041
     12 N         138.4455  137.9328  162.4298 N.ar    1  UNL1       -0.1253
     13 N         138.8634  137.8509  160.9915 N.ar    1  UNL1       -0.1237
     14 C         140.0728  138.7195  160.8102 C.ar    1  UNL1        0.2218
     15 C         140.9166  139.0271  159.6087 C.ar    1  UNL1        0.1907
     16 C         142.0898  139.9533  159.7334 C.ar    1  UNL1        0.1067
     17 C         142.4193  140.5720  161.0596 C.ar    1  UNL1        0.1382
     18 N         141.5755  140.2644  162.2610 N.ar    1  UNL1       -0.1592
     19 N         140.4023  139.3382  162.1363 N.ar    1  UNL1       -0.1869
     20 N         142.9336  140.2608  158.5320 N.pl3   1  UNL1       -0.2987
     21 C         144.1069  141.1870  158.6567 C.3     1  UNL1        0.1124
     22 C         142.6041  139.6421  157.2059 C.3     1  UNL1        0.1387
     23 C         141.4308  138.7159  157.0811 C.3     1  UNL1        0.2269
     24 O         140.5871  138.4084  158.2825 O.3     1  UNL1       -0.4692
     25 N         141.9539  142.5405  166.1547 N.pl3   1  UNL1       -0.3328
     26 H         142.9295  142.4401  166.2401 H       1  UNL1        0.1468
     27 C         139.6652  146.1057  161.9061 C.3     1  UNL1        0.0896
     28 N         140.2373  145.2144  162.9683 N.3     1  UNL1       -0.2714
     29 C         141.6449  144.7105  162.8463 C.3     1  UNL1        0.0738
     30 C         142.2171  143.8192  163.9085 C.3     1  UNL1        0.0368
     31 C         141.3817  143.4318  165.0926 C.3     1  UNL1        0.0718
     32 C         139.9740  143.9356  165.2145 C.3     1  UNL1        0.0368
     33 C         139.4019  144.8270  164.1523 C.3     1  UNL1        0.0738
@<TRIPOS>BOND
     1    27    28    1
     2    28    29    1
     3    29    30    1
     4    30    31    1
     5    31    25    1
     6    25     1    1
     7     1     2   ar
     8     2     3   ar
     9     3     4   ar
    10     4     5   ar
    11     5     6   ar
    12     6     7   ar
    13     7     8   ar
    14     8    11    1
    15    11    12   ar
    16    12    13   ar
    17    13    14   ar
    18    14    15   ar
    19    15    16   ar
    20    16    17   ar
    21    17    18   ar
    22    18    19   ar
    23    16    20    1
    24    20    21    1
    25    20    22    1
    26    22    23    1
    27    23    24    1
    28     8     9   ar
    29     9    10   ar
    30    31    32    1
    31    32    33    1
    32    33    28    1
    33    10     1   ar
    34    10     5   ar
    35    19    11   ar
    36    19    14   ar
    37    24    15    1
    38    25    26    1
@<TRIPOS>MOLECULE
*****
 33 38 0 0 0
SMALL
GASTEIGER

@<TRIPOS>ATOM
      1 C         141.0724  139.9838  166.6485 C.ar    1  UNL1        0.0625
      2 C         140.2017  140.1482  167.8588 C.ar    1  UNL1        0.0158
      3 C         138.8107  139.5869  167.8639 C.ar    1  UNL1        0.0014
      4 C         138.2903  138.8612  166.6586 C.ar    1  UNL1        0.0016
      5 C         139.1610  138.6968  165.4483 C.ar    1  UNL1        0.0189
      6 C         138.6407  137.9711  164.2431 C.ar    1  UNL1        0.0032
      7 C         139.5113  137.8067  163.0328 C.ar    1  UNL1        0.0223
      8 C         140.9023  138.3680  163.0277 C.ar    1  UNL1        0.1188
      9 N         141.4227  139.0936  164.2328 N.ar    1  UNL1       -0.2410
     10 C         140.5520  139.2581  165.4433 C.ar    1  UNL1        0.0944
     11 C         141.7730  138.2035  161.8173 C.ar    1  UNL1        0.2041
     12 N         143.2492  137.9375  161.8227 N.ar    1  UNL1       -0.1253
     13 N         143.7089  137.8459  160.3978 N.ar    1  UNL1       -0.1237
     14 C         142.5167  138.0552  159.5118 C.ar    1  UNL1        0.2218
     15 C         142.3661  138.0731  158.0195 C.ar    1  UNL1        0.1907
     16 C         141.0190  138.3120  157.4045 C.ar    1  UNL1        0.1067
     17 C         139.8225  138.5331  158.2818 C.ar    1  UNL1        0.1382
     18 N         139.9732  138.5152  159.7741 N.ar    1  UNL1       -0.1592
     19 N         141.3203  138.2763  160.3891 N.ar    1  UNL1       -0.1869
     20 N         140.8683  138.3299  155.9122 N.pl3   1  UNL1       -0.2987
     21 C         139.5212  138.5689  155.2972 C.3     1  UNL1        0.1124
     22 C         142.0647  138.1089  155.0349 C.3     1  UNL1        0.1387
     23 C         143.4118  137.8699  155.6499 C.3     1  UNL1        0.2269
     24 O         143.5625  137.8520  157.1422 O.3     1  UNL1       -0.4692
     25 N         142.4634  140.5451  166.6433 N.pl3   1  UNL1       -0.3328
     26 H         143.1367  140.1978  167.2721 H       1  UNL1        0.1468
     27 C         143.9241  144.9065  162.7905 C.3     1  UNL1        0.0896
     28 N         143.5589  143.8161  163.7537 N.3     1  UNL1       -0.2714
     29 C         142.2286  143.8417  164.4462 C.3     1  UNL1        0.0738
     30 C         141.8635  142.7513  165.4094 C.3     1  UNL1        0.0368
     31 C         142.8286  141.6354  165.6801 C.3     1  UNL1        0.0718
     32 C         144.1590  141.6099  164.9875 C.3     1  UNL1        0.0368
     33 C         144.5241  142.7002  164.0243 C.3     1  UNL1        0.0738
@<TRIPOS>BOND
     1    27    28    1
     2    28    29    1
     3    29    30    1
     4    30    31    1
     5    31    25    1
     6    25     1    1
     7     1     2   ar
     8     2     3   ar
     9     3     4   ar
    10     4     5   ar
    11     5     6   ar
    12     6     7   ar
    13     7     8   ar
    14     8    11    1
    15    11    12   ar
    16    12    13   ar
    17    13    14   ar
    18    14    15   ar
    19    15    16   ar
    20    16    17   ar
    21    17    18   ar
    22    18    19   ar
    23    16    20    1
    24    20    21    1
    25    20    22    1
    26    22    23    1
    27    23    24    1
    28     8     9   ar
    29     9    10   ar
    30    31    32    1
    31    32    33    1
    32    33    28    1
    33    10     1   ar
    34    10     5   ar
    35    19    11   ar
    36    19    14   ar
    37    24    15    1
    38    25    26    1
@<TRIPOS>MOLECULE
*****
 33 38 0 0 0
SMALL
GASTEIGER

@<TRIPOS>ATOM
      1 C         142.3103  139.7177  167.3741 C.ar    1  UNL1        0.0625
      2 C         142.5604  139.9375  168.8366 C.ar    1  UNL1        0.0158
      3 C         141.4052  140.0408  169.7879 C.ar    1  UNL1        0.0014
      4 C         139.9999  139.9243  169.2765 C.ar    1  UNL1        0.0016
      5 C         139.7498  139.7045  167.8139 C.ar    1  UNL1        0.0189
      6 C         138.3445  139.5880  167.3026 C.ar    1  UNL1        0.0032
      7 C         138.0943  139.3682  165.8401 C.ar    1  UNL1        0.0223
      8 C         139.2495  139.2649  164.8889 C.ar    1  UNL1        0.1188
      9 N         140.6548  139.3814  165.4001 N.ar    1  UNL1       -0.2410
     10 C         140.9050  139.6012  166.8627 C.ar    1  UNL1        0.0944
     11 C         138.9994  139.0450  163.4262 C.ar    1  UNL1        0.2041
     12 N         138.5478  137.7630  162.7919 N.ar    1  UNL1       -0.1253
     13 N         138.4263  137.9943  161.3148 N.ar    1  UNL1       -0.1237
     14 C         138.8027  139.4193  161.0363 C.ar    1  UNL1        0.2218
     15 C         138.8687  140.2095  159.7630 C.ar    1  UNL1        0.1907
     16 C         139.2889  141.6491  159.7946 C.ar    1  UNL1        0.1067
     17 C         139.6431  142.2985  161.0996 C.ar    1  UNL1        0.1382
     18 N         139.5771  141.5083  162.3728 N.ar    1  UNL1       -0.1592
     19 N         139.1569  140.0687  162.3412 N.ar    1  UNL1       -0.1869
     20 N         139.3549  142.4393  158.5214 N.pl3   1  UNL1       -0.2987
     21 C         139.7751  143.8789  158.5530 C.3     1  UNL1        0.1124
     22 C         139.0007  141.7898  157.2165 C.3     1  UNL1        0.1387
     23 C         138.5805  140.3503  157.1848 C.3     1  UNL1        0.2269
     24 O         138.5145  139.5601  158.4581 O.3     1  UNL1       -0.4692
     25 N         143.4655  139.6144  166.4228 N.pl3   1  UNL1       -0.3328
     26 H         144.0677  138.8365  166.4623 H       1  UNL1        0.1468
     27 C         144.4160  143.9418  162.3769 C.3     1  UNL1        0.0896
     28 N         144.1784  142.8599  163.3884 N.3     1  UNL1       -0.2714
     29 C         143.5721  143.1968  164.7184 C.3     1  UNL1        0.0738
     30 C         143.3345  142.1149  165.7298 C.3     1  UNL1        0.0368
     31 C         143.7031  140.6962  165.4113 C.3     1  UNL1        0.0718
     32 C         144.3094  140.3594  164.0812 C.3     1  UNL1        0.0368
     33 C         144.5470  141.4413  163.0697 C.3     1  UNL1        0.0738
@<TRIPOS>BOND
     1    27    28    1
     2    28    29    1
     3    29    30    1
     4    30    31    1
     5    31    25    1
     6    25     1    1
     7     1     2   ar
     8     2     3   ar
     9     3     4   ar
    10     4     5   ar
    11     5     6   ar
    12     6     7   ar
    13     7     8   ar
    14     8    11    1
    15    11    12   ar
    16    12    13   ar
    17    13    14   ar
    18    14    15   ar
    19    15    16   ar
    20    16    17   ar
    21    17    18   ar
    22    18    19   ar
    23    16    20    1
    24    20    21    1
    25    20    22    1
    26    22    23    1
    27    23    24    1
    28     8     9   ar
    29     9    10   ar
    30    31    32    1
    31    32    33    1
    32    33    28    1
    33    10     1   ar
    34    10     5   ar
    35    19    11   ar
    36    19    14   ar
    37    24    15    1
    38    25    26    1
@<TRIPOS>MOLECULE
*****
 33 38 0 0 0
SMALL
GASTEIGER

@<TRIPOS>ATOM
      1 C         140.3961  139.9916  166.9044 C.ar    1  UNL1        0.0625
      2 C         139.3959  139.9081  168.0192 C.ar    1  UNL1        0.0158
      3 C         138.1472  139.0950  167.8471 C.ar    1  UNL1        0.0014
      4 C         137.8986  138.3655  166.5602 C.ar    1  UNL1        0.0016
      5 C         138.8987  138.4490  165.4455 C.ar    1  UNL1        0.0189
      6 C         138.6502  137.7195  164.1586 C.ar    1  UNL1        0.0032
      7 C         139.6502  137.8030  163.0438 C.ar    1  UNL1        0.0223
      8 C         140.8990  138.6160  163.2159 C.ar    1  UNL1        0.1188
      9 N         141.1476  139.3455  164.5027 N.ar    1  UNL1       -0.2410
     10 C         140.1475  139.2621  165.6176 C.ar    1  UNL1        0.0944
     11 C         141.8992  138.6996  162.1011 C.ar    1  UNL1        0.2041
     12 N         142.9018  137.6456  161.7352 N.ar    1  UNL1       -0.1253
     13 N         143.6946  138.1464  160.5645 N.ar    1  UNL1       -0.1237
     14 C         143.1819  139.5099  160.2068 C.ar    1  UNL1        0.2218
     15 C         143.5822  140.4843  159.1389 C.ar    1  UNL1        0.1907
     16 C         142.8728  141.8007  159.0208 C.ar    1  UNL1        0.1067
     17 C         141.7632  142.1426  159.9705 C.ar    1  UNL1        0.1382
     18 N         141.3630  141.1682  161.0383 N.ar    1  UNL1       -0.1592
     19 N         142.0723  139.8518  161.1564 N.ar    1  UNL1       -0.1869
     20 N         143.2731  142.7752  157.9530 N.pl3   1  UNL1       -0.2987
     21 C         142.5637  144.0916  157.8348 C.3     1  UNL1        0.1124
     22 C         144.3826  142.4333  157.0034 C.3     1  UNL1        0.1387
     23 C         145.0920  141.1169  157.1215 C.3     1  UNL1        0.2269
     24 O         144.6918  140.1424  158.1893 O.3     1  UNL1       -0.4692
     25 N         141.6449  140.8046  167.0764 N.pl3   1  UNL1       -0.3328
     26 H         142.2601  140.6106  167.8202 H       1  UNL1        0.1468
     27 C         142.8906  145.2391  163.2316 C.3     1  UNL1        0.0896
     28 N         142.5792  144.1305  164.1928 N.3     1  UNL1       -0.2714
     29 C         141.1701  143.9174  164.6609 C.3     1  UNL1        0.0738
     30 C         140.8587  142.8088  165.6221 C.3     1  UNL1        0.0368
     31 C         141.9563  141.9132  166.1152 C.3     1  UNL1        0.0718
     32 C         143.3655  142.1263  165.6471 C.3     1  UNL1        0.0368
     33 C         143.6769  143.2350  164.6859 C.3     1  UNL1        0.0738
@<TRIPOS>BOND
     1    27    28    1
     2    28    29    1
     3    29    30    1
     4    30    31    1
     5    31    25    1
     6    25     1    1
     7     1     2   ar
     8     2     3   ar
     9     3     4   ar
    10     4     5   ar
    11     5     6   ar
    12     6     7   ar
    13     7     8   ar
    14     8    11    1
    15    11    12   ar
    16    12    13   ar
    17    13    14   ar
    18    14    15   ar
    19    15    16   ar
    20    16    17   ar
    21    17    18   ar
    22    18    19   ar
    23    16    20    1
    24    20    21    1
    25    20    22    1
    26    22    23    1
    27    23    24    1
    28     8     9   ar
    29     9    10   ar
    30    31    32    1
    31    32    33    1
    32    33    28    1
    33    10     1   ar
    34    10     5   ar
    35    19    11   ar
    36    19    14   ar
    37    24    15    1
    38    25    26    1
@<TRIPOS>MOLECULE
*****
 33 38 0 0 0
SMALL
GASTEIGER

@<TRIPOS>ATOM
      1 C         142.3592  140.4439  164.7006 C.ar    1  UNL1        0.0625
      2 C         143.2440  139.4634  165.4118 C.ar    1  UNL1        0.0158
      3 C         144.6723  139.2957  164.9855 C.ar    1  UNL1        0.0014
      4 C         145.2158  140.1084  163.8479 C.ar    1  UNL1        0.0016
      5 C         144.3310  141.0888  163.1367 C.ar    1  UNL1        0.0189
      6 C         144.8745  141.9015  161.9991 C.ar    1  UNL1        0.0032
      7 C         143.9898  142.8820  161.2879 C.ar    1  UNL1        0.0223
      8 C         142.5615  143.0497  161.7143 C.ar    1  UNL1        0.1188
      9 N         142.0179  142.2371  162.8518 N.ar    1  UNL1       -0.2410
     10 C         142.9027  141.2566  163.5631 C.ar    1  UNL1        0.0944
     11 C         141.6767  144.0303  161.0030 C.ar    1  UNL1        0.2041
     12 N         140.6067  144.8712  161.6339 N.ar    1  UNL1       -0.1253
     13 N         139.9753  145.7026  160.5568 N.ar    1  UNL1       -0.1237
     14 C         140.6550  145.3755  159.2603 C.ar    1  UNL1        0.2218
     15 C         140.4523  145.8853  157.8642 C.ar    1  UNL1        0.1907
     16 C         141.3012  145.3615  156.7439 C.ar    1  UNL1        0.1067
     17 C         142.3527  144.3279  157.0197 C.ar    1  UNL1        0.1382
     18 N         142.5554  143.8182  158.4158 N.ar    1  UNL1       -0.1592
     19 N         141.7065  144.3420  159.5361 N.ar    1  UNL1       -0.1869
     20 N         141.0985  145.8713  155.3478 N.pl3   1  UNL1       -0.2987
     21 C         141.9474  145.3475  154.2275 C.3     1  UNL1        0.1124
     22 C         140.0470  146.9048  155.0721 C.3     1  UNL1        0.1387
     23 C         139.1982  147.4286  156.1924 C.3     1  UNL1        0.2269
     24 O         139.4008  146.9188  157.5885 O.3     1  UNL1       -0.4692
     25 N         140.9308  140.6117  165.1270 N.pl3   1  UNL1       -0.3328
     26 H         140.2024  140.4301  164.4900 H       1  UNL1        0.1468
     27 C         139.6570  142.3895  170.7141 C.3     1  UNL1        0.0896
     28 N         139.9755  141.9450  169.3173 N.3     1  UNL1       -0.2714
     29 C         139.6036  140.5635  168.8668 C.3     1  UNL1        0.0738
     30 C         139.9221  140.1190  167.4700 C.3     1  UNL1        0.0368
     31 C         140.6124  141.0561  166.5238 C.3     1  UNL1        0.0718
     32 C         140.9842  142.4378  166.9744 C.3     1  UNL1        0.0368
     33 C         140.6658  142.8822  168.3712 C.3     1  UNL1        0.0738
@<TRIPOS>BOND
     1    27    28    1
     2    28    29    1
     3    29    30    1
     4    30    31    1
     5    31    25    1
     6    25     1    1
     7     1     2   ar
     8     2     3   ar
     9     3     4   ar
    10     4     5   ar
    11     5     6   ar
    12     6     7   ar
    13     7     8   ar
    14     8    11    1
    15    11    12   ar
    16    12    13   ar
    17    13    14   ar
    18    14    15   ar
    19    15    16   ar
    20    16    17   ar
    21    17    18   ar
    22    18    19   ar
    23    16    20    1
    24    20    21    1
    25    20    22    1
    26    22    23    1
    27    23    24    1
    28     8     9   ar
    29     9    10   ar
    30    31    32    1
    31    32    33    1
    32    33    28    1
    33    10     1   ar
    34    10     5   ar
    35    19    11   ar
    36    19    14   ar
    37    24    15    1
    38    25    26    1
