@<TRIPOS>MOLECULE
*****
 26 29 0 0 0
SMALL
GASTEIGER

@<TRIPOS>ATOM
      1 C         139.9215  140.2328  167.2099 C.3     1  UNL1        0.1810
      2 C         139.6938  140.5084  168.6667 C.3     1  UNL1        0.0557
      3 C         139.0399  140.8940  169.9605 C.3     1  UNL1        0.0685
      4 C         140.3152  140.5989  170.6930 C.2     1  UNL1        0.1505
      5 O         140.7547  140.6628  172.1257 O.2     1  UNL1       -0.2961
      6 C         140.9691  140.2132  169.3992 C.3     1  UNL1        0.0630
      7 C         141.9850  139.7552  168.3951 C.3     1  UNL1        0.0271
      8 C         141.3375  139.7673  167.0421 C.3     1  UNL1        0.0983
      9 N         141.9914  139.3816  165.7483 N.3     1  UNL1       -0.2697
     10 C         143.2872  140.0196  165.3435 C.3     1  UNL1        0.0722
     11 C         143.9410  139.6339  164.0498 C.3     1  UNL1        0.0187
     12 C         143.2991  138.6103  163.1609 C.3     1  UNL1        0.0183
     13 C         142.0033  137.9724  163.5658 C.3     1  UNL1        0.0670
     14 N         141.3613  136.9487  162.6769 N.3     1  UNL1       -0.3211
     15 C         141.3494  138.3580  164.8595 C.3     1  UNL1        0.0878
     16 H         141.9375  136.8101  161.8467 H       1  UNL1        0.1189
     17 H         140.4355  137.2734  162.3979 H       1  UNL1        0.1189
     18 O         138.9107  140.3943  166.1135 O.3     1  UNL1       -0.4778
     19 C         139.1067  143.9639  163.3805 C.ar    1  UNL1        0.0686
     20 C         140.0410  143.8622  164.5495 C.ar    1  UNL1        0.0134
     21 C         139.9757  142.6723  165.4606 C.ar    1  UNL1        0.0376
     22 C         138.9761  141.5842  165.2025 C.ar    1  UNL1        0.1385
     23 C         138.0418  141.6859  164.0334 C.ar    1  UNL1        0.0376
     24 C         138.1071  142.8757  163.1224 C.ar    1  UNL1        0.0134
     25 N         139.2374  146.3437  161.5584 N.1     1  UNL1       -0.1908
     26 C         139.1721  145.1538  162.4694 C.1     1  UNL1        0.1004
@<TRIPOS>BOND
     1    25    26    3
     2    26    19    1
     3    19    20   ar
     4    20    21   ar
     5    21    22   ar
     6    22    18    1
     7     1    18    1
     8     1     2    1
     9     2     3    1
    10     3     4    1
    11     4     5    2
    12     4     6    1
    13     6     7    1
    14     7     8    1
    15     8     9    1
    16     9    10    1
    17    10    11    1
    18    11    12    1
    19    12    13    1
    20    13    14    1
    21    13    15    1
    22    22    23   ar
    23    23    24   ar
    24    24    19   ar
    25     8     1    1
    26    15     9    1
    27     6     2    1
    28    14    16    1
    29    14    17    1
@<TRIPOS>MOLECULE
*****
 26 29 0 0 0
SMALL
GASTEIGER

@<TRIPOS>ATOM
      1 C         141.2934  141.7563  167.2474 C.3     1  UNL1        0.1810
      2 C         141.4899  142.1690  168.6761 C.3     1  UNL1        0.0557
      3 C         142.0383  142.8232  169.9096 C.3     1  UNL1        0.0685
      4 C         140.9866  142.1450  170.7368 C.2     1  UNL1        0.1505
      5 O         140.6307  142.1280  172.1939 O.2     1  UNL1       -0.2961
      6 C         140.4383  141.4908  169.5033 C.3     1  UNL1        0.0630
      7 C         139.5918  140.6590  168.5858 C.3     1  UNL1        0.0271
      8 C         140.1203  140.8232  167.1917 C.3     1  UNL1        0.0983
      9 N         139.5720  140.1690  165.9582 N.3     1  UNL1       -0.2697
     10 C         140.0469  138.8031  165.5594 C.3     1  UNL1        0.0722
     11 C         139.4986  138.1490  164.3260 C.3     1  UNL1        0.0187
     12 C         138.4753  138.8606  163.4913 C.3     1  UNL1        0.0183
     13 C         138.0005  140.2264  163.8902 C.3     1  UNL1        0.0670
     14 N         136.9772  140.9380  163.0555 N.3     1  UNL1       -0.3211
     15 C         138.5488  140.8807  165.1236 C.3     1  UNL1        0.0878
     16 H         136.7182  140.3516  162.2622 H       1  UNL1        0.1189
     17 H         137.3674  141.8170  162.7155 H       1  UNL1        0.1189
     18 O         142.1241  142.1992  166.0796 O.3     1  UNL1       -0.4778
     19 C         140.3846  144.9947  163.0123 C.ar    1  UNL1        0.0686
     20 C         141.6869  144.3013  162.7419 C.ar    1  UNL1        0.0134
     21 C         142.2667  143.3694  163.7644 C.ar    1  UNL1        0.0376
     22 C         141.5443  143.1310  165.0572 C.ar    1  UNL1        0.1385
     23 C         140.2419  143.8245  165.3274 C.ar    1  UNL1        0.0376
     24 C         139.6621  144.7563  164.3050 C.ar    1  UNL1        0.0134
     25 N         139.2249  146.8585  160.9674 N.1     1  UNL1       -0.1908
     26 C         139.8047  145.9266  161.9898 C.1     1  UNL1        0.1004
@<TRIPOS>BOND
     1    25    26    3
     2    26    19    1
     3    19    20   ar
     4    20    21   ar
     5    21    22   ar
     6    22    18    1
     7     1    18    1
     8     1     2    1
     9     2     3    1
    10     3     4    1
    11     4     5    2
    12     4     6    1
    13     6     7    1
    14     7     8    1
    15     8     9    1
    16     9    10    1
    17    10    11    1
    18    11    12    1
    19    12    13    1
    20    13    14    1
    21    13    15    1
    22    22    23   ar
    23    23    24   ar
    24    24    19   ar
    25     8     1    1
    26    15     9    1
    27     6     2    1
    28    14    16    1
    29    14    17    1
@<TRIPOS>MOLECULE
*****
 26 29 0 0 0
SMALL
GASTEIGER

@<TRIPOS>ATOM
      1 C         141.3862  141.6924  167.2986 C.3     1  UNL1        0.1810
      2 C         141.4495  142.1759  168.7171 C.3     1  UNL1        0.0557
      3 C         141.8474  142.9314  169.9504 C.3     1  UNL1        0.0685
      4 C         140.8275  142.1711  170.7453 C.2     1  UNL1        0.1505
      5 O         140.3877  142.1677  172.1793 O.2     1  UNL1       -0.2961
      6 C         140.4295  141.4156  169.5119 C.3     1  UNL1        0.0630
      7 C         139.7358  140.4623  168.5846 C.3     1  UNL1        0.0271
      8 C         140.3271  140.6334  167.2167 C.3     1  UNL1        0.0983
      9 N         139.9291  139.8779  165.9834 N.3     1  UNL1       -0.2697
     10 C         138.6555  140.2237  165.2704 C.3     1  UNL1        0.0722
     11 C         138.2576  139.4682  164.0372 C.3     1  UNL1        0.0187
     12 C         139.1332  138.3671  163.5169 C.3     1  UNL1        0.0183
     13 C         140.4068  138.0214  164.2299 C.3     1  UNL1        0.0670
     14 N         141.2825  136.9202  163.7096 N.3     1  UNL1       -0.3211
     15 C         140.8048  138.7767  165.4632 C.3     1  UNL1        0.0878
     16 H         140.8622  136.5190  162.8713 H       1  UNL1        0.1189
     17 H         141.3779  136.1964  164.4219 H       1  UNL1        0.1189
     18 O         142.2332  142.1821  166.1616 O.3     1  UNL1       -0.4778
     19 C         140.4838  144.9651  163.0884 C.ar    1  UNL1        0.0686
     20 C         141.8839  144.4522  162.9251 C.ar    1  UNL1        0.0134
     21 C         142.4670  143.5245  163.9495 C.ar    1  UNL1        0.0376
     22 C         141.6501  143.1097  165.1372 C.ar    1  UNL1        0.1385
     23 C         140.2500  143.6227  165.3005 C.ar    1  UNL1        0.0376
     24 C         139.6669  144.5503  164.2761 C.ar    1  UNL1        0.0134
     25 N         139.3176  146.8204  161.0396 N.1     1  UNL1       -0.1908
     26 C         139.9007  145.8928  162.0640 C.1     1  UNL1        0.1004
@<TRIPOS>BOND
     1    25    26    3
     2    26    19    1
     3    19    20   ar
     4    20    21   ar
     5    21    22   ar
     6    22    18    1
     7     1    18    1
     8     1     2    1
     9     2     3    1
    10     3     4    1
    11     4     5    2
    12     4     6    1
    13     6     7    1
    14     7     8    1
    15     8     9    1
    16     9    10    1
    17    10    11    1
    18    11    12    1
    19    12    13    1
    20    13    14    1
    21    13    15    1
    22    22    23   ar
    23    23    24   ar
    24    24    19   ar
    25     8     1    1
    26    15     9    1
    27     6     2    1
    28    14    16    1
    29    14    17    1
@<TRIPOS>MOLECULE
*****
 26 29 0 0 0
SMALL
GASTEIGER

@<TRIPOS>ATOM
      1 C         141.0806  142.8324  163.8064 C.3     1  UNL1        0.1810
      2 C         140.8945  144.1755  163.1650 C.3     1  UNL1        0.0557
      3 C         141.0882  145.6130  162.7826 C.3     1  UNL1        0.0685
      4 C         139.8898  145.5354  161.8836 C.2     1  UNL1        0.1505
      5 O         139.1794  146.4969  160.9776 O.2     1  UNL1       -0.2961
      6 C         139.6961  144.0979  162.2660 C.3     1  UNL1        0.0630
      7 C         139.1417  142.7068  162.3519 C.3     1  UNL1        0.0271
      8 C         139.9973  141.9247  163.3039 C.3     1  UNL1        0.0983
      9 N         139.8036  140.4872  163.6863 N.3     1  UNL1       -0.2697
     10 C         138.7769  140.1167  164.7152 C.3     1  UNL1        0.0722
     11 C         138.5833  138.6792  165.0976 C.3     1  UNL1        0.0187
     12 C         139.4162  137.6123  164.4511 C.3     1  UNL1        0.0183
     13 C         140.4429  137.9830  163.4222 C.3     1  UNL1        0.0670
     14 N         141.2759  136.9161  162.7757 N.3     1  UNL1       -0.3211
     15 C         140.6366  139.4204  163.0398 C.3     1  UNL1        0.0878
     16 H         141.0129  136.0051  163.1515 H       1  UNL1        0.1189
     17 H         142.2621  137.0915  162.9681 H       1  UNL1        0.1189
     18 O         142.1604  142.4621  164.7795 O.3     1  UNL1       -0.4778
     19 C         141.2564  142.2866  169.1843 C.ar    1  UNL1        0.0686
     20 C         142.6160  141.9010  168.6818 C.ar    1  UNL1        0.0134
     21 C         142.9174  141.9594  167.2135 C.ar    1  UNL1        0.0376
     22 C         141.8590  142.4036  166.2477 C.ar    1  UNL1        0.1385
     23 C         140.4994  142.7893  166.7503 C.ar    1  UNL1        0.0376
     24 C         140.1980  142.7308  168.2185 C.ar    1  UNL1        0.0134
     25 N         140.6537  142.1697  172.1208 N.1     1  UNL1       -0.1908
     26 C         140.9550  142.2281  170.6526 C.1     1  UNL1        0.1004
@<TRIPOS>BOND
     1    25    26    3
     2    26    19    1
     3    19    20   ar
     4    20    21   ar
     5    21    22   ar
     6    22    18    1
     7     1    18    1
     8     1     2    1
     9     2     3    1
    10     3     4    1
    11     4     5    2
    12     4     6    1
    13     6     7    1
    14     7     8    1
    15     8     9    1
    16     9    10    1
    17    10    11    1
    18    11    12    1
    19    12    13    1
    20    13    14    1
    21    13    15    1
    22    22    23   ar
    23    23    24   ar
    24    24    19   ar
    25     8     1    1
    26    15     9    1
    27     6     2    1
    28    14    16    1
    29    14    17    1
@<TRIPOS>MOLECULE
*****
 26 29 0 0 0
SMALL
GASTEIGER

@<TRIPOS>ATOM
      1 C         140.0507  140.5456  166.7847 C.3     1  UNL1        0.1810
      2 C         139.6135  140.5569  168.2195 C.3     1  UNL1        0.0557
      3 C         139.5134  140.8941  169.6778 C.3     1  UNL1        0.0685
      4 C         138.4069  139.8932  169.8332 C.2     1  UNL1        0.1505
      5 O         137.5537  139.4239  170.9742 O.2     1  UNL1       -0.2961
      6 C         138.5070  139.5561  168.3749 C.3     1  UNL1        0.0630
      7 C         138.2604  138.9262  167.0361 C.3     1  UNL1        0.0271
      8 C         139.2144  139.5377  166.0534 C.3     1  UNL1        0.0983
      9 N         139.3145  139.2006  164.5951 N.3     1  UNL1       -0.2697
     10 C         138.3104  139.7527  163.6271 C.3     1  UNL1        0.0722
     11 C         138.4106  139.4156  162.1689 C.3     1  UNL1        0.0187
     12 C         139.5147  138.5264  161.6787 C.3     1  UNL1        0.0183
     13 C         140.5188  137.9743  162.6469 C.3     1  UNL1        0.0670
     14 N         141.6229  137.0852  162.1567 N.3     1  UNL1       -0.3211
     15 C         140.4187  138.3114  164.1050 C.3     1  UNL1        0.0878
     16 H         141.5386  136.9632  161.1475 H       1  UNL1        0.1189
     17 H         141.5569  136.1766  162.6157 H       1  UNL1        0.1189
     18 O         141.1339  141.3932  166.1863 O.3     1  UNL1       -0.4778
     19 C         140.0953  144.5902  163.1946 C.ar    1  UNL1        0.0686
     20 C         139.5471  144.6613  164.5889 C.ar    1  UNL1        0.0134
     21 C         139.8933  143.5956  165.5862 C.ar    1  UNL1        0.0376
     22 C         140.7877  142.4588  165.1891 C.ar    1  UNL1        0.1385
     23 C         141.3359  142.3877  163.7946 C.ar    1  UNL1        0.0376
     24 C         140.9897  143.4534  162.7974 C.ar    1  UNL1        0.0134
     25 N         139.4029  146.7215  161.2000 N.1     1  UNL1       -0.1908
     26 C         139.7491  145.6558  162.1973 C.1     1  UNL1        0.1004
@<TRIPOS>BOND
     1    25    26    3
     2    26    19    1
     3    19    20   ar
     4    20    21   ar
     5    21    22   ar
     6    22    18    1
     7     1    18    1
     8     1     2    1
     9     2     3    1
    10     3     4    1
    11     4     5    2
    12     4     6    1
    13     6     7    1
    14     7     8    1
    15     8     9    1
    16     9    10    1
    17    10    11    1
    18    11    12    1
    19    12    13    1
    20    13    14    1
    21    13    15    1
    22    22    23   ar
    23    23    24   ar
    24    24    19   ar
    25     8     1    1
    26    15     9    1
    27     6     2    1
    28    14    16    1
    29    14    17    1
@<TRIPOS>MOLECULE
*****
 26 29 0 0 0
SMALL
GASTEIGER

@<TRIPOS>ATOM
      1 C         143.1620  141.7631  166.9516 C.3     1  UNL1        0.1810
      2 C         142.8343  142.0119  168.3941 C.3     1  UNL1        0.0557
      3 C         142.6695  142.6861  169.7239 C.3     1  UNL1        0.0685
      4 C         142.1162  141.4161  170.2992 C.2     1  UNL1        0.1505
      5 O         141.6085  140.9948  171.6464 O.2     1  UNL1       -0.2961
      6 C         142.2810  140.7418  168.9694 C.3     1  UNL1        0.0630
      7 C         142.2668  139.7082  167.8825 C.3     1  UNL1        0.0271
      8 C         142.8113  140.3394  166.6355 C.3     1  UNL1        0.0983
      9 N         142.9761  139.6651  165.3057 N.3     1  UNL1       -0.2697
     10 C         144.1473  140.0053  164.4324 C.3     1  UNL1        0.0722
     11 C         144.3120  139.3310  163.1027 C.3     1  UNL1        0.0187
     12 C         143.3057  138.3167  162.6462 C.3     1  UNL1        0.0183
     13 C         142.1345  137.9766  163.5195 C.3     1  UNL1        0.0670
     14 N         141.1282  136.9622  163.0631 N.3     1  UNL1       -0.3211
     15 C         141.9697  138.6507  164.8493 C.3     1  UNL1        0.0878
     16 H         141.3946  136.6086  162.1442 H       1  UNL1        0.1189
     17 H         140.2079  137.3982  163.0059 H       1  UNL1        0.1189
     18 O         143.7391  142.7626  165.9935 O.3     1  UNL1       -0.4778
     19 C         141.0379  144.9862  163.1635 C.ar    1  UNL1        0.0686
     20 C         140.4557  144.0213  164.1535 C.ar    1  UNL1        0.0134
     21 C         141.3562  143.2801  165.0969 C.ar    1  UNL1        0.0376
     22 C         142.8387  143.5038  165.0502 C.ar    1  UNL1        0.1385
     23 C         143.4207  144.4687  164.0601 C.ar    1  UNL1        0.0376
     24 C         142.5203  145.2098  163.1168 C.ar    1  UNL1        0.0134
     25 N         139.2370  146.4686  161.2768 N.1     1  UNL1       -0.1908
     26 C         140.1374  145.7274  162.2201 C.1     1  UNL1        0.1004
@<TRIPOS>BOND
     1    25    26    3
     2    26    19    1
     3    19    20   ar
     4    20    21   ar
     5    21    22   ar
     6    22    18    1
     7     1    18    1
     8     1     2    1
     9     2     3    1
    10     3     4    1
    11     4     5    2
    12     4     6    1
    13     6     7    1
    14     7     8    1
    15     8     9    1
    16     9    10    1
    17    10    11    1
    18    11    12    1
    19    12    13    1
    20    13    14    1
    21    13    15    1
    22    22    23   ar
    23    23    24   ar
    24    24    19   ar
    25     8     1    1
    26    15     9    1
    27     6     2    1
    28    14    16    1
    29    14    17    1
@<TRIPOS>MOLECULE
*****
 26 29 0 0 0
SMALL
GASTEIGER

@<TRIPOS>ATOM
      1 C         140.1563  142.3590  163.7266 C.3     1  UNL1        0.1810
      2 C         139.4327  143.5755  163.2301 C.3     1  UNL1        0.0557
      3 C         138.3707  144.6104  163.0033 C.3     1  UNL1        0.0685
      4 C         139.2975  145.3623  162.0946 C.2     1  UNL1        0.1505
      5 O         139.2019  146.6258  161.2918 O.2     1  UNL1       -0.2961
      6 C         140.3595  144.3275  162.3214 C.3     1  UNL1        0.0630
      7 C         141.6558  143.5756  162.2563 C.3     1  UNL1        0.0271
      8 C         141.5302  142.3591  163.1247 C.3     1  UNL1        0.0983
      9 N         142.5922  141.3242  163.3515 N.3     1  UNL1       -0.2697
     10 C         143.2378  141.1950  164.6993 C.3     1  UNL1        0.0722
     11 C         144.2997  140.1602  164.9260 C.3     1  UNL1        0.0187
     12 C         144.7160  139.2546  163.8050 C.3     1  UNL1        0.0183
     13 C         144.0704  139.3839  162.4572 C.3     1  UNL1        0.0670
     14 N         144.4867  138.4783  161.3363 N.3     1  UNL1       -0.3211
     15 C         143.0085  140.4187  162.2304 C.3     1  UNL1        0.0878
     16 H         145.2131  137.8422  161.6650 H       1  UNL1        0.1189
     17 H         144.8486  139.0376  160.5639 H       1  UNL1        0.1189
     18 O         139.6030  141.3240  164.6608 O.3     1  UNL1       -0.4778
     19 C         140.2313  141.7326  169.0979 C.ar    1  UNL1        0.0686
     20 C         139.7006  140.4495  168.5307 C.ar    1  UNL1        0.0134
     21 C         139.4911  140.3133  167.0516 C.ar    1  UNL1        0.0376
     22 C         139.8124  141.4602  166.1398 C.ar    1  UNL1        0.1385
     23 C         140.3431  142.7434  166.7072 C.ar    1  UNL1        0.0376
     24 C         140.5526  142.8796  168.1862 C.ar    1  UNL1        0.0134
     25 N         140.6502  142.0050  172.0561 N.1     1  UNL1       -0.1908
     26 C         140.4407  141.8688  170.5770 C.1     1  UNL1        0.1004
@<TRIPOS>BOND
     1    25    26    3
     2    26    19    1
     3    19    20   ar
     4    20    21   ar
     5    21    22   ar
     6    22    18    1
     7     1    18    1
     8     1     2    1
     9     2     3    1
    10     3     4    1
    11     4     5    2
    12     4     6    1
    13     6     7    1
    14     7     8    1
    15     8     9    1
    16     9    10    1
    17    10    11    1
    18    11    12    1
    19    12    13    1
    20    13    14    1
    21    13    15    1
    22    22    23   ar
    23    23    24   ar
    24    24    19   ar
    25     8     1    1
    26    15     9    1
    27     6     2    1
    28    14    16    1
    29    14    17    1
@<TRIPOS>MOLECULE
*****
 26 29 0 0 0
SMALL
GASTEIGER

@<TRIPOS>ATOM
      1 C         140.3315  141.9956  167.1905 C.3     1  UNL1        0.1810
      2 C         140.3494  142.5675  168.5771 C.3     1  UNL1        0.0557
      3 C         140.3708  143.5400  169.7190 C.3     1  UNL1        0.0685
      4 C         140.3628  142.3980  170.6917 C.2     1  UNL1        0.1505
      5 O         140.3723  142.2782  172.1868 O.2     1  UNL1       -0.2961
      6 C         140.3414  141.4256  169.5497 C.3     1  UNL1        0.0630
      7 C         140.3186  140.1479  168.7643 C.3     1  UNL1        0.0271
      8 C         140.3125  140.5002  167.3062 C.3     1  UNL1        0.0983
      9 N         140.2911  139.5277  166.1643 N.3     1  UNL1       -0.2697
     10 C         139.0308  138.7830  165.8369 C.3     1  UNL1        0.0722
     11 C         139.0095  137.8106  164.6950 C.3     1  UNL1        0.0187
     12 C         140.2483  137.5829  163.8805 C.3     1  UNL1        0.0183
     13 C         141.5086  138.3276  164.2080 C.3     1  UNL1        0.0670
     14 N         142.7474  138.0999  163.3935 N.3     1  UNL1       -0.3211
     15 C         141.5300  139.3000  165.3498 C.3     1  UNL1        0.0878
     16 H         142.5538  137.4127  162.6650 H       1  UNL1        0.1189
     17 H         143.4928  137.7539  163.9977 H       1  UNL1        0.1189
     18 O         140.3325  142.7811  165.9127 O.3     1  UNL1       -0.4778
     19 C         138.4568  141.0507  162.2063 C.ar    1  UNL1        0.0686
     20 C         137.6027  141.3843  163.3934 C.ar    1  UNL1        0.0134
     21 C         138.2279  141.9611  164.6289 C.ar    1  UNL1        0.0376
     22 C         139.7073  142.2043  164.6773 C.ar    1  UNL1        0.1385
     23 C         140.5614  141.8708  163.4901 C.ar    1  UNL1        0.0376
     24 C         139.9361  141.2940  162.2547 C.ar    1  UNL1        0.0134
     25 N         137.2063  139.8972  159.7354 N.1     1  UNL1       -0.1908
     26 C         137.8315  140.4739  160.9708 C.1     1  UNL1        0.1004
@<TRIPOS>BOND
     1    25    26    3
     2    26    19    1
     3    19    20   ar
     4    20    21   ar
     5    21    22   ar
     6    22    18    1
     7     1    18    1
     8     1     2    1
     9     2     3    1
    10     3     4    1
    11     4     5    2
    12     4     6    1
    13     6     7    1
    14     7     8    1
    15     8     9    1
    16     9    10    1
    17    10    11    1
    18    11    12    1
    19    12    13    1
    20    13    14    1
    21    13    15    1
    22    22    23   ar
    23    23    24   ar
    24    24    19   ar
    25     8     1    1
    26    15     9    1
    27     6     2    1
    28    14    16    1
    29    14    17    1
@<TRIPOS>MOLECULE
*****
 26 29 0 0 0
SMALL
GASTEIGER

@<TRIPOS>ATOM
      1 C         142.5164  141.6495  163.7380 C.3     1  UNL1        0.1810
      2 C         143.4143  140.5053  163.3714 C.3     1  UNL1        0.0557
      3 C         144.5891  139.5740  163.3183 C.3     1  UNL1        0.0685
      4 C         143.8794  138.7371  162.2955 C.2     1  UNL1        0.1505
      5 O         144.2083  137.4869  161.5347 O.2     1  UNL1       -0.2961
      6 C         142.7047  139.6684  162.3486 C.3     1  UNL1        0.0630
      7 C         141.3681  140.2955  162.0831 C.3     1  UNL1        0.0271
      8 C         141.2518  141.5198  162.9417 C.3     1  UNL1        0.0983
      9 N         140.0771  142.4511  162.9948 N.3     1  UNL1       -0.2697
     10 C         138.8131  142.0255  163.6814 C.3     1  UNL1        0.0722
     11 C         137.6384  142.9568  163.7344 C.3     1  UNL1        0.0187
     12 C         137.7276  144.3136  163.1011 C.3     1  UNL1        0.0183
     13 C         138.9916  144.7391  162.4146 C.3     1  UNL1        0.0670
     14 N         139.0809  146.0959  161.7812 N.3     1  UNL1       -0.3211
     15 C         140.1664  143.8079  162.3614 C.3     1  UNL1        0.0878
     16 H         138.1984  146.5906  161.9114 H       1  UNL1        0.1189
     17 H         139.2695  145.9939  160.7840 H       1  UNL1        0.1189
     18 O         142.8283  142.7332  164.7271 O.3     1  UNL1       -0.4778
     19 C         141.4934  142.3268  169.0053 C.ar    1  UNL1        0.0686
     20 C         142.9491  142.2181  168.6604 C.ar    1  UNL1        0.0134
     21 C         143.3941  142.3536  167.2342 C.ar    1  UNL1        0.0376
     22 C         142.3833  142.5977  166.1532 C.ar    1  UNL1        0.1385
     23 C         140.9276  142.7064  166.4982 C.ar    1  UNL1        0.0376
     24 C         140.4826  142.5709  167.9242 C.ar    1  UNL1        0.0134
     25 N         140.6035  142.0559  171.8574 N.1     1  UNL1       -0.1908
     26 C         141.0484  142.1914  170.4314 C.1     1  UNL1        0.1004
@<TRIPOS>BOND
     1    25    26    3
     2    26    19    1
     3    19    20   ar
     4    20    21   ar
     5    21    22   ar
     6    22    18    1
     7     1    18    1
     8     1     2    1
     9     2     3    1
    10     3     4    1
    11     4     5    2
    12     4     6    1
    13     6     7    1
    14     7     8    1
    15     8     9    1
    16     9    10    1
    17    10    11    1
    18    11    12    1
    19    12    13    1
    20    13    14    1
    21    13    15    1
    22    22    23   ar
    23    23    24   ar
    24    24    19   ar
    25     8     1    1
    26    15     9    1
    27     6     2    1
    28    14    16    1
    29    14    17    1
