@<TRIPOS>MOLECULE
*****
 32 36 0 0 0
SMALL
GASTEIGER

@<TRIPOS>ATOM
      1 N         139.3528  140.1246  167.8055 N.am    1  UNL1       -0.2743
      2 C         140.4095  141.0631  167.3030 C.3     1  UNL1        0.0984
      3 C         140.9443  140.9136  165.9096 C.3     1  UNL1        0.0480
      4 C         140.4224  139.8255  165.0187 C.ar    1  UNL1       -0.0161
      5 C         140.9572  139.6760  163.6253 C.ar    1  UNL1       -0.0041
      6 C         140.4353  138.5880  162.7344 C.ar    1  UNL1       -0.0003
      7 C         139.3786  137.6494  163.2369 C.ar    1  UNL1        0.0001
      8 C         138.8438  137.7990  164.6302 C.ar    1  UNL1        0.0042
      9 C         139.3657  138.8870  165.5211 C.ar    1  UNL1        0.0497
     10 C         138.8308  139.0365  166.9146 C.2     1  UNL1        0.2488
     11 O         137.7741  138.0980  167.4171 O.2     1  UNL1       -0.2699
     12 C         140.9702  138.4384  161.3409 C.ar    1  UNL1       -0.0000
     13 C         142.3780  137.9682  161.1244 C.ar    1  UNL1        0.0001
     14 C         142.9128  137.8186  159.7310 C.ar    1  UNL1        0.0045
     15 C         142.0398  138.1393  158.5541 C.ar    1  UNL1        0.0536
     16 C         140.6320  138.6095  158.7706 C.ar    1  UNL1        0.0045
     17 C         140.0972  138.7591  160.1641 C.ar    1  UNL1        0.0001
     18 C         142.5747  137.9897  157.1607 C.2     1  UNL1        0.2490
     19 O         142.6944  139.1910  156.2704 O.2     1  UNL1       -0.2699
     20 N         142.9897  136.6389  156.6576 N.am    1  UNL1       -0.2761
     21 C         143.5395  136.3362  155.2952 C.3     1  UNL1        0.0938
     22 C         143.8175  134.8639  155.2242 C.3     1  UNL1        0.0233
     23 C         143.4395  134.2567  156.5427 C.3     1  UNL1        0.0233
     24 C         142.9280  135.3537  157.4286 C.3     1  UNL1        0.0938
     25 C         138.8179  140.2741  169.1990 C.3     1  UNL1        0.1110
     26 C         139.7540  140.2310  170.3702 C.3     1  UNL1        0.0938
     27 C         142.6683  138.8678  169.8243 C.3     1  UNL1        0.0173
     28 C         142.4068  140.3264  170.0568 C.3     1  UNL1        0.0576
     29 C         143.4390  141.4145  170.0792 C.3     1  UNL1        0.0174
     30 C         142.7374  142.7136  170.3439 C.3     1  UNL1        0.0187
     31 C         141.2715  142.4283  170.4852 C.3     1  UNL1        0.0721
     32 N         141.0672  140.9530  170.3077 N.3     1  UNL1       -0.2725
@<TRIPOS>BOND
     1    28    27    1
     2    28    29    1
     3    29    30    1
     4    30    31    1
     5    31    32    1
     6    32    26    1
     7    26    25    1
     8    25     1    1
     9     1     2    1
    10     2     3    1
    11     3     4    1
    12     4     5   ar
    13     5     6   ar
    14     6    12    1
    15    12    13   ar
    16    13    14   ar
    17    14    15   ar
    18    15    18    1
    19    18    19    2
    20    18    20   am
    21    20    21    1
    22    21    22    1
    23    22    23    1
    24    23    24    1
    25    15    16   ar
    26    16    17   ar
    27     6     7   ar
    28     7     8   ar
    29     8     9   ar
    30     9    10    1
    31    10    11    2
    32    32    28    1
    33    10     1   am
    34     9     4   ar
    35    17    12   ar
    36    24    20    1
@<TRIPOS>MOLECULE
*****
 32 36 0 0 0
SMALL
GASTEIGER

@<TRIPOS>ATOM
      1 N         141.9148  138.3407  156.6700 N.am    1  UNL1       -0.2743
      2 C         142.9557  137.9518  157.6776 C.3     1  UNL1        0.0984
      3 C         142.6381  138.0045  159.1426 C.3     1  UNL1        0.0480
      4 C         141.2795  138.4462  159.6001 C.ar    1  UNL1       -0.0161
      5 C         140.9619  138.4990  161.0651 C.ar    1  UNL1       -0.0041
      6 C         139.6034  138.9407  161.5226 C.ar    1  UNL1       -0.0003
      7 C         138.5625  139.3296  160.5150 C.ar    1  UNL1        0.0001
      8 C         138.8801  139.2769  159.0500 C.ar    1  UNL1        0.0042
      9 C         140.2386  138.8352  158.5925 C.ar    1  UNL1        0.0497
     10 C         140.5563  138.7824  157.1275 C.2     1  UNL1        0.2488
     11 O         139.5154  139.1713  156.1199 O.2     1  UNL1       -0.2699
     12 C         139.2857  138.9934  162.9876 C.ar    1  UNL1       -0.0000
     13 C         139.6747  137.8530  163.8809 C.ar    1  UNL1        0.0001
     14 C         139.3571  137.9057  165.3459 C.ar    1  UNL1        0.0045
     15 C         138.6504  139.0989  165.9177 C.ar    1  UNL1        0.0536
     16 C         138.2614  140.2394  165.0244 C.ar    1  UNL1        0.0045
     17 C         138.5791  140.1866  163.5593 C.ar    1  UNL1        0.0001
     18 C         138.3328  139.1516  167.3827 C.2     1  UNL1        0.2490
     19 O         137.2656  138.2640  167.9511 O.2     1  UNL1       -0.2699
     20 N         139.0823  140.0920  168.2793 N.am    1  UNL1       -0.2761
     21 C         138.8761  140.2548  169.7561 C.3     1  UNL1        0.0938
     22 C         139.8360  141.2981  170.2461 C.3     1  UNL1        0.0233
     23 C         140.6355  141.7802  169.0720 C.3     1  UNL1        0.0233
     24 C         140.1697  141.0347  167.8565 C.3     1  UNL1        0.0938
     25 C         142.2325  138.2880  155.2050 C.3     1  UNL1        0.1110
     26 C         143.2022  137.2690  154.6840 C.3     1  UNL1        0.0938
     27 C         143.7330  134.6342  156.5348 C.3     1  UNL1        0.0173
     28 C         142.9810  134.6633  155.2373 C.3     1  UNL1        0.0576
     29 C         142.3409  133.4863  154.5627 C.3     1  UNL1        0.0174
     30 C         141.7013  133.9701  153.2950 C.3     1  UNL1        0.0187
     31 C         141.9461  135.4460  153.1862 C.3     1  UNL1        0.0721
     32 N         142.7370  135.8744  154.3866 N.3     1  UNL1       -0.2725
@<TRIPOS>BOND
     1    28    27    1
     2    28    29    1
     3    29    30    1
     4    30    31    1
     5    31    32    1
     6    32    26    1
     7    26    25    1
     8    25     1    1
     9     1     2    1
    10     2     3    1
    11     3     4    1
    12     4     5   ar
    13     5     6   ar
    14     6    12    1
    15    12    13   ar
    16    13    14   ar
    17    14    15   ar
    18    15    18    1
    19    18    19    2
    20    18    20   am
    21    20    21    1
    22    21    22    1
    23    22    23    1
    24    23    24    1
    25    15    16   ar
    26    16    17   ar
    27     6     7   ar
    28     7     8   ar
    29     8     9   ar
    30     9    10    1
    31    10    11    2
    32    32    28    1
    33    10     1   am
    34     9     4   ar
    35    17    12   ar
    36    24    20    1
@<TRIPOS>MOLECULE
*****
 32 36 0 0 0
SMALL
GASTEIGER

@<TRIPOS>ATOM
      1 N         139.3856  140.1415  167.8125 N.am    1  UNL1       -0.2743
      2 C         140.4693  141.0502  167.3126 C.3     1  UNL1        0.0984
      3 C         141.0031  140.8857  165.9205 C.3     1  UNL1        0.0480
      4 C         140.4533  139.8125  165.0283 C.ar    1  UNL1       -0.0161
      5 C         140.9871  139.6481  163.6362 C.ar    1  UNL1       -0.0041
      6 C         140.4373  138.5750  162.7440 C.ar    1  UNL1       -0.0003
      7 C         139.3536  137.6663  163.2439 C.ar    1  UNL1        0.0001
      8 C         138.8198  137.8307  164.6360 C.ar    1  UNL1        0.0042
      9 C         139.3696  138.9039  165.5282 C.ar    1  UNL1        0.0497
     10 C         138.8358  139.0683  166.9203 C.2     1  UNL1        0.2488
     11 O         137.7521  138.1596  167.4203 O.2     1  UNL1       -0.2699
     12 C         140.9711  138.4105  161.3519 C.ar    1  UNL1       -0.0000
     13 C         142.3393  137.8346  161.1365 C.ar    1  UNL1        0.0001
     14 C         142.8732  137.6702  159.7444 C.ar    1  UNL1        0.0045
     15 C         142.0388  138.0815  158.5676 C.ar    1  UNL1        0.0536
     16 C         140.6706  138.6574  158.7830 C.ar    1  UNL1        0.0045
     17 C         140.1367  138.8219  160.1752 C.ar    1  UNL1        0.0001
     18 C         142.5726  137.9170  157.1756 C.2     1  UNL1        0.2490
     19 O         142.1681  136.7301  156.3526 O.2     1  UNL1       -0.2699
     20 N         143.5111  138.9395  156.6065 N.am    1  UNL1       -0.2761
     21 C         144.1231  138.9093  155.2373 C.3     1  UNL1        0.0938
     22 C         144.9925  140.1229  155.0913 C.3     1  UNL1        0.0233
     23 C         144.9179  140.9031  156.3702 C.3     1  UNL1        0.0233
     24 C         144.0023  140.1718  157.3066 C.3     1  UNL1        0.0938
     25 C         138.8518  140.3059  169.2047 C.3     1  UNL1        0.1110
     26 C         139.7850  140.2479  170.3775 C.3     1  UNL1        0.0938
     27 C         142.7060  138.8915  169.8506 C.3     1  UNL1        0.0173
     28 C         142.4402  140.3488  170.0860 C.3     1  UNL1        0.0576
     29 C         143.4703  141.4386  170.1204 C.3     1  UNL1        0.0174
     30 C         142.7643  142.7356  170.3839 C.3     1  UNL1        0.0187
     31 C         141.2979  142.4474  170.5123 C.3     1  UNL1        0.0721
     32 N         141.0975  140.9723  170.3282 N.3     1  UNL1       -0.2725
@<TRIPOS>BOND
     1    28    27    1
     2    28    29    1
     3    29    30    1
     4    30    31    1
     5    31    32    1
     6    32    26    1
     7    26    25    1
     8    25     1    1
     9     1     2    1
    10     2     3    1
    11     3     4    1
    12     4     5   ar
    13     5     6   ar
    14     6    12    1
    15    12    13   ar
    16    13    14   ar
    17    14    15   ar
    18    15    18    1
    19    18    19    2
    20    18    20   am
    21    20    21    1
    22    21    22    1
    23    22    23    1
    24    23    24    1
    25    15    16   ar
    26    16    17   ar
    27     6     7   ar
    28     7     8   ar
    29     8     9   ar
    30     9    10    1
    31    10    11    2
    32    32    28    1
    33    10     1   am
    34     9     4   ar
    35    17    12   ar
    36    24    20    1
@<TRIPOS>MOLECULE
*****
 32 36 0 0 0
SMALL
GASTEIGER

@<TRIPOS>ATOM
      1 N         139.1079  141.0664  155.9924 N.am    1  UNL1       -0.2743
      2 C         138.5694  142.2360  156.7617 C.3     1  UNL1        0.0984
      3 C         138.3980  142.1409  158.2488 C.3     1  UNL1        0.0480
      4 C         138.7652  140.8760  158.9667 C.ar    1  UNL1       -0.0161
      5 C         138.5939  140.7808  160.4538 C.ar    1  UNL1       -0.0041
      6 C         138.9611  139.5160  161.1716 C.ar    1  UNL1       -0.0003
      7 C         139.4996  138.3463  160.4023 C.ar    1  UNL1        0.0001
      8 C         139.6710  138.4415  158.9152 C.ar    1  UNL1        0.0042
      9 C         139.3038  139.7063  158.1974 C.ar    1  UNL1        0.0497
     10 C         139.4751  139.8015  156.7102 C.2     1  UNL1        0.2488
     11 O         140.0137  138.6318  155.9409 O.2     1  UNL1       -0.2699
     12 C         138.7897  139.4207  162.6588 C.ar    1  UNL1       -0.0000
     13 C         139.1632  138.1582  163.3774 C.ar    1  UNL1        0.0001
     14 C         138.9919  138.0629  164.8645 C.ar    1  UNL1        0.0045
     15 C         138.4471  139.2303  165.6331 C.ar    1  UNL1        0.0536
     16 C         138.0736  140.4928  164.9144 C.ar    1  UNL1        0.0045
     17 C         138.2450  140.5881  163.4272 C.ar    1  UNL1        0.0001
     18 C         138.2758  139.1350  167.1202 C.2     1  UNL1        0.2490
     19 O         137.2879  138.1671  167.7008 O.2     1  UNL1       -0.2699
     20 N         139.0923  140.0077  168.0266 N.am    1  UNL1       -0.2761
     21 C         139.0309  140.0240  169.5253 C.3     1  UNL1        0.0938
     22 C         140.0143  141.0436  170.0185 C.3     1  UNL1        0.0233
     23 C         140.6836  141.6575  168.8247 C.3     1  UNL1        0.0233
     24 C         140.1138  141.0172  167.5936 C.3     1  UNL1        0.0938
     25 C         139.2793  141.1616  154.5052 C.3     1  UNL1        0.1110
     26 C         138.1585  140.7578  153.5937 C.3     1  UNL1        0.0938
     27 C         136.7417  137.8932  154.2541 C.3     1  UNL1        0.0173
     28 C         136.1256  139.2470  154.4480 C.3     1  UNL1        0.0576
     29 C         134.7501  139.5218  154.9795 C.3     1  UNL1        0.0174
     30 C         134.5513  141.0084  155.0044 C.3     1  UNL1        0.0187
     31 C         135.8039  141.6523  154.4883 C.3     1  UNL1        0.0721
     32 N         136.7769  140.5638  154.1444 N.3     1  UNL1       -0.2725
@<TRIPOS>BOND
     1    28    27    1
     2    28    29    1
     3    29    30    1
     4    30    31    1
     5    31    32    1
     6    32    26    1
     7    26    25    1
     8    25     1    1
     9     1     2    1
    10     2     3    1
    11     3     4    1
    12     4     5   ar
    13     5     6   ar
    14     6    12    1
    15    12    13   ar
    16    13    14   ar
    17    14    15   ar
    18    15    18    1
    19    18    19    2
    20    18    20   am
    21    20    21    1
    22    21    22    1
    23    22    23    1
    24    23    24    1
    25    15    16   ar
    26    16    17   ar
    27     6     7   ar
    28     7     8   ar
    29     8     9   ar
    30     9    10    1
    31    10    11    2
    32    32    28    1
    33    10     1   am
    34     9     4   ar
    35    17    12   ar
    36    24    20    1
@<TRIPOS>MOLECULE
*****
 32 36 0 0 0
SMALL
GASTEIGER

@<TRIPOS>ATOM
      1 N         140.8073  138.2655  157.6182 N.am    1  UNL1       -0.2743
      2 C         139.5646  138.6254  158.3773 C.3     1  UNL1        0.0984
      3 C         139.6236  138.8205  159.8634 C.3     1  UNL1        0.0480
      4 C         140.9252  138.6555  160.5904 C.ar    1  UNL1       -0.0161
      5 C         140.9842  138.8506  162.0765 C.ar    1  UNL1       -0.0041
      6 C         142.2858  138.6856  162.8035 C.ar    1  UNL1       -0.0003
      7 C         143.5285  138.3257  162.0444 C.ar    1  UNL1        0.0001
      8 C         143.4695  138.1307  160.5583 C.ar    1  UNL1        0.0042
      9 C         142.1679  138.2956  159.8313 C.ar    1  UNL1        0.0497
     10 C         142.1089  138.1006  158.3452 C.2     1  UNL1        0.2488
     11 O         143.3516  137.7406  157.5861 O.2     1  UNL1       -0.2699
     12 C         142.3448  138.8807  164.2896 C.ar    1  UNL1       -0.0000
     13 C         141.1169  139.3046  165.0397 C.ar    1  UNL1        0.0001
     14 C         141.1759  139.4996  166.5258 C.ar    1  UNL1        0.0045
     15 C         142.4628  139.2707  167.2618 C.ar    1  UNL1        0.0536
     16 C         143.6906  138.8468  166.5117 C.ar    1  UNL1        0.0045
     17 C         143.6316  138.6518  165.0256 C.ar    1  UNL1        0.0001
     18 C         142.5217  139.4658  168.7479 C.2     1  UNL1        0.2490
     19 O         142.9628  138.3397  169.6352 O.2     1  UNL1       -0.2699
     20 N         142.1396  140.7869  169.3467 N.am    1  UNL1       -0.2761
     21 C         142.1485  141.1286  170.8073 C.3     1  UNL1        0.0938
     22 C         141.6958  142.5512  170.9533 C.3     1  UNL1        0.0233
     23 C         141.4071  143.0887  169.5831 C.3     1  UNL1        0.0233
     24 C         141.6813  141.9983  168.5901 C.3     1  UNL1        0.0938
     25 C         140.7483  138.0705  156.1321 C.3     1  UNL1        0.1110
     26 C         140.0803  136.8548  155.5611 C.3     1  UNL1        0.0938
     27 C         140.0685  135.9263  152.4326 C.3     1  UNL1        0.0173
     28 C         140.9023  135.3282  153.5267 C.3     1  UNL1        0.0576
     29 C         141.8770  134.1982  153.3748 C.3     1  UNL1        0.0174
     30 C         142.4849  133.9267  154.7191 C.3     1  UNL1        0.0187
     31 C         141.8858  134.8888  155.7016 C.3     1  UNL1        0.0721
     32 N         140.9077  135.7550  154.9647 N.3     1  UNL1       -0.2725
@<TRIPOS>BOND
     1    28    27    1
     2    28    29    1
     3    29    30    1
     4    30    31    1
     5    31    32    1
     6    32    26    1
     7    26    25    1
     8    25     1    1
     9     1     2    1
    10     2     3    1
    11     3     4    1
    12     4     5   ar
    13     5     6   ar
    14     6    12    1
    15    12    13   ar
    16    13    14   ar
    17    14    15   ar
    18    15    18    1
    19    18    19    2
    20    18    20   am
    21    20    21    1
    22    21    22    1
    23    22    23    1
    24    23    24    1
    25    15    16   ar
    26    16    17   ar
    27     6     7   ar
    28     7     8   ar
    29     8     9   ar
    30     9    10    1
    31    10    11    2
    32    32    28    1
    33    10     1   am
    34     9     4   ar
    35    17    12   ar
    36    24    20    1
@<TRIPOS>MOLECULE
*****
 32 36 0 0 0
SMALL
GASTEIGER

@<TRIPOS>ATOM
      1 N         141.6000  138.0089  157.3743 N.am    1  UNL1       -0.2743
      2 C         142.8000  137.9222  158.2701 C.3     1  UNL1        0.0984
      3 C         142.6580  138.1790  159.7411 C.3     1  UNL1        0.0480
      4 C         141.3159  138.5225  160.3164 C.ar    1  UNL1       -0.0161
      5 C         141.1739  138.7793  161.7874 C.ar    1  UNL1       -0.0041
      6 C         139.8319  139.1229  162.3626 C.ar    1  UNL1       -0.0003
      7 C         138.6319  139.2097  161.4668 C.ar    1  UNL1        0.0001
      8 C         138.7739  138.9529  159.9958 C.ar    1  UNL1        0.0042
      9 C         140.1159  138.6093  159.4206 C.ar    1  UNL1        0.0497
     10 C         140.2580  138.3525  157.9495 C.2     1  UNL1        0.2488
     11 O         139.0580  138.4392  157.0537 O.2     1  UNL1       -0.2699
     12 C         139.6898  139.3797  163.8336 C.ar    1  UNL1       -0.0000
     13 C         140.8789  139.2409  164.7374 C.ar    1  UNL1        0.0001
     14 C         140.7369  139.4977  166.2084 C.ar    1  UNL1        0.0045
     15 C         139.4058  139.8934  166.7757 C.ar    1  UNL1        0.0536
     16 C         138.2167  140.0322  165.8718 C.ar    1  UNL1        0.0045
     17 C         138.3588  139.7754  164.4008 C.ar    1  UNL1        0.0001
     18 C         139.2638  140.1502  168.2466 C.2     1  UNL1        0.2490
     19 O         138.2492  139.3880  169.0465 O.2     1  UNL1       -0.2699
     20 N         140.1363  141.1691  168.9178 N.am    1  UNL1       -0.2761
     21 C         140.1089  141.5320  170.3729 C.3     1  UNL1        0.0938
     22 C         141.1451  142.5913  170.6061 C.3     1  UNL1        0.0233
     23 C         141.8128  142.8831  169.2950 C.3     1  UNL1        0.0233
     24 C         141.1893  142.0042  168.2516 C.3     1  UNL1        0.0938
     25 C         141.7421  137.7521  155.9033 C.3     1  UNL1        0.1110
     26 C         142.7850  136.7954  155.4062 C.3     1  UNL1        0.0938
     27 C         141.1476  134.6355  153.5888 C.3     1  UNL1        0.0173
     28 C         141.8989  134.3352  154.8519 C.3     1  UNL1        0.0576
     29 C         142.0295  132.9894  155.5013 C.3     1  UNL1        0.0174
     30 C         142.8628  133.1506  156.7381 C.3     1  UNL1        0.0187
     31 C         143.2473  134.5959  156.8530 C.3     1  UNL1        0.0721
     32 N         142.6515  135.3281  155.6873 N.3     1  UNL1       -0.2725
@<TRIPOS>BOND
     1    28    27    1
     2    28    29    1
     3    29    30    1
     4    30    31    1
     5    31    32    1
     6    32    26    1
     7    26    25    1
     8    25     1    1
     9     1     2    1
    10     2     3    1
    11     3     4    1
    12     4     5   ar
    13     5     6   ar
    14     6    12    1
    15    12    13   ar
    16    13    14   ar
    17    14    15   ar
    18    15    18    1
    19    18    19    2
    20    18    20   am
    21    20    21    1
    22    21    22    1
    23    22    23    1
    24    23    24    1
    25    15    16   ar
    26    16    17   ar
    27     6     7   ar
    28     7     8   ar
    29     8     9   ar
    30     9    10    1
    31    10    11    2
    32    32    28    1
    33    10     1   am
    34     9     4   ar
    35    17    12   ar
    36    24    20    1
@<TRIPOS>MOLECULE
*****
 32 36 0 0 0
SMALL
GASTEIGER

@<TRIPOS>ATOM
      1 N         144.8069  141.3338  157.6064 N.am    1  UNL1       -0.2743
      2 C         144.9860  142.5206  158.5062 C.3     1  UNL1        0.0984
      3 C         144.3562  142.5315  159.8674 C.3     1  UNL1        0.0480
      4 C         143.5472  141.3557  160.3290 C.ar    1  UNL1       -0.0161
      5 C         142.9173  141.3667  161.6903 C.ar    1  UNL1       -0.0041
      6 C         142.1083  140.1909  162.1518 C.ar    1  UNL1       -0.0003
      7 C         141.9292  139.0041  161.2521 C.ar    1  UNL1        0.0001
      8 C         142.5591  138.9932  159.8908 C.ar    1  UNL1        0.0042
      9 C         143.3680  140.1690  159.4293 C.ar    1  UNL1        0.0497
     10 C         143.9979  140.1580  158.0679 C.2     1  UNL1        0.2488
     11 O         143.8188  138.9713  157.1682 O.2     1  UNL1       -0.2699
     12 C         141.4784  140.2018  163.5132 C.ar    1  UNL1       -0.0000
     13 C         141.8817  139.1798  164.5343 C.ar    1  UNL1        0.0001
     14 C         141.2519  139.1906  165.8956 C.ar    1  UNL1        0.0045
     15 C         140.2187  140.2236  166.2358 C.ar    1  UNL1        0.0536
     16 C         139.8154  141.2456  165.2146 C.ar    1  UNL1        0.0045
     17 C         140.4453  141.2347  163.8533 C.ar    1  UNL1        0.0001
     18 C         139.5888  140.2345  167.5971 C.2     1  UNL1        0.2490
     19 O         138.6052  139.1677  167.9768 O.2     1  UNL1       -0.2699
     20 N         139.9427  141.3122  168.5786 N.am    1  UNL1       -0.2761
     21 C         139.3970  141.4524  169.9688 C.3     1  UNL1        0.0938
     22 C         140.0214  142.6658  170.5916 C.3     1  UNL1        0.0233
     23 C         140.9529  143.2754  169.5864 C.3     1  UNL1        0.0233
     24 C         140.9043  142.4389  168.3423 C.3     1  UNL1        0.0938
     25 C         145.4368  141.3229  156.2451 C.3     1  UNL1        0.1110
     26 C         145.9753  142.5937  155.6576 C.3     1  UNL1        0.0938
     27 C         146.8861  144.5868  153.2395 C.3     1  UNL1        0.0173
     28 C         147.7287  143.5131  153.8617 C.3     1  UNL1        0.0576
     29 C         149.1379  143.1670  153.4817 C.3     1  UNL1        0.0174
     30 C         149.5901  142.0369  154.3583 C.3     1  UNL1        0.0187
     31 C         148.4604  141.6846  155.2801 C.3     1  UNL1        0.0721
     32 N         147.3100  142.5969  154.9732 N.3     1  UNL1       -0.2725
@<TRIPOS>BOND
     1    28    27    1
     2    28    29    1
     3    29    30    1
     4    30    31    1
     5    31    32    1
     6    32    26    1
     7    26    25    1
     8    25     1    1
     9     1     2    1
    10     2     3    1
    11     3     4    1
    12     4     5   ar
    13     5     6   ar
    14     6    12    1
    15    12    13   ar
    16    13    14   ar
    17    14    15   ar
    18    15    18    1
    19    18    19    2
    20    18    20   am
    21    20    21    1
    22    21    22    1
    23    22    23    1
    24    23    24    1
    25    15    16   ar
    26    16    17   ar
    27     6     7   ar
    28     7     8   ar
    29     8     9   ar
    30     9    10    1
    31    10    11    2
    32    32    28    1
    33    10     1   am
    34     9     4   ar
    35    17    12   ar
    36    24    20    1
@<TRIPOS>MOLECULE
*****
 32 36 0 0 0
SMALL
GASTEIGER

@<TRIPOS>ATOM
      1 N         141.8613  138.3323  156.7076 N.am    1  UNL1       -0.2743
      2 C         140.4756  137.8839  157.0663 C.3     1  UNL1        0.0984
      3 C         139.9808  138.0309  158.4747 C.3     1  UNL1        0.0480
      4 C         140.8717  138.6263  159.5244 C.ar    1  UNL1       -0.0161
      5 C         140.3769  138.7733  160.9327 C.ar    1  UNL1       -0.0041
      6 C         141.2678  139.3687  161.9823 C.ar    1  UNL1       -0.0003
      7 C         142.6535  139.8171  161.6236 C.ar    1  UNL1        0.0001
      8 C         143.1484  139.6701  160.2152 C.ar    1  UNL1        0.0042
      9 C         142.2574  139.0747  159.1656 C.ar    1  UNL1        0.0497
     10 C         142.7522  138.9277  157.7572 C.2     1  UNL1        0.2488
     11 O         144.1380  139.3760  157.3984 O.2     1  UNL1       -0.2699
     12 C         140.7730  139.5158  163.3908 C.ar    1  UNL1       -0.0000
     13 C         139.4614  140.1926  163.6581 C.ar    1  UNL1        0.0001
     14 C         138.9666  140.3397  165.0664 C.ar    1  UNL1        0.0045
     15 C         139.7834  139.8099  166.2076 C.ar    1  UNL1        0.0536
     16 C         141.0950  139.1330  165.9403 C.ar    1  UNL1        0.0045
     17 C         141.5898  138.9859  164.5318 C.ar    1  UNL1        0.0001
     18 C         139.2886  139.9569  167.6159 C.2     1  UNL1        0.2490
     19 O         138.2784  138.9912  168.1606 O.2     1  UNL1       -0.2699
     20 N         139.8040  141.0697  168.4796 N.am    1  UNL1       -0.2761
     21 C         139.4040  141.3414  169.8995 C.3     1  UNL1        0.0938
     22 C         140.1628  142.5458  170.3726 C.3     1  UNL1        0.0233
     23 C         141.0317  143.0185  169.2450 C.3     1  UNL1        0.0233
     24 C         140.8100  142.1062  168.0751 C.3     1  UNL1        0.0938
     25 C         142.3561  138.1852  155.2991 C.3     1  UNL1        0.1110
     26 C         143.2015  137.0055  154.9205 C.3     1  UNL1        0.0938
     27 C         143.1950  134.8383  157.3604 C.3     1  UNL1        0.0173
     28 C         142.5951  134.6367  156.0004 C.3     1  UNL1        0.0576
     29 C         141.8868  133.4036  155.5232 C.3     1  UNL1        0.0174
     30 C         141.4521  133.6377  154.1067 C.3     1  UNL1        0.0187
     31 C         141.8917  135.0154  153.7086 C.3     1  UNL1        0.0721
     32 N         142.5981  135.6329  154.8790 N.3     1  UNL1       -0.2725
@<TRIPOS>BOND
     1    28    27    1
     2    28    29    1
     3    29    30    1
     4    30    31    1
     5    31    32    1
     6    32    26    1
     7    26    25    1
     8    25     1    1
     9     1     2    1
    10     2     3    1
    11     3     4    1
    12     4     5   ar
    13     5     6   ar
    14     6    12    1
    15    12    13   ar
    16    13    14   ar
    17    14    15   ar
    18    15    18    1
    19    18    19    2
    20    18    20   am
    21    20    21    1
    22    21    22    1
    23    22    23    1
    24    23    24    1
    25    15    16   ar
    26    16    17   ar
    27     6     7   ar
    28     7     8   ar
    29     8     9   ar
    30     9    10    1
    31    10    11    2
    32    32    28    1
    33    10     1   am
    34     9     4   ar
    35    17    12   ar
    36    24    20    1
@<TRIPOS>MOLECULE
*****
 32 36 0 0 0
SMALL
GASTEIGER

@<TRIPOS>ATOM
      1 N         138.8526  138.7570  162.4435 N.am    1  UNL1       -0.2743
      2 C         137.7756  139.7971  162.5339 C.3     1  UNL1        0.0984
      3 C         137.7926  140.9768  161.6076 C.3     1  UNL1        0.0480
      4 C         138.8867  141.1164  160.5909 C.ar    1  UNL1       -0.0161
      5 C         138.9037  142.2961  159.6646 C.ar    1  UNL1       -0.0041
      6 C         139.9976  142.4356  158.6480 C.ar    1  UNL1       -0.0003
      7 C         141.0746  141.3955  158.5575 C.ar    1  UNL1        0.0001
      8 C         141.0576  140.2158  159.4838 C.ar    1  UNL1        0.0042
      9 C         139.9637  140.0762  160.5005 C.ar    1  UNL1        0.0497
     10 C         139.9466  138.8965  161.4268 C.2     1  UNL1        0.2488
     11 O         141.0236  137.8563  161.3364 O.2     1  UNL1       -0.2699
     12 C         140.0147  143.6153  157.7216 C.ar    1  UNL1       -0.0000
     13 C         138.9718  143.7434  156.6511 C.ar    1  UNL1        0.0001
     14 C         138.9888  144.9231  155.7248 C.ar    1  UNL1        0.0045
     15 C         140.0487  145.9747  155.8690 C.ar    1  UNL1        0.0536
     16 C         141.0916  145.8466  156.9395 C.ar    1  UNL1        0.0045
     17 C         141.0746  144.6669  157.8658 C.ar    1  UNL1        0.0001
     18 C         140.0657  147.1544  154.9427 C.2     1  UNL1        0.2490
     19 O         140.7175  147.0415  153.5964 O.2     1  UNL1       -0.2699
     20 N         139.4309  148.4469  155.3626 N.am    1  UNL1       -0.2761
     21 C         139.3702  149.7050  154.5480 C.3     1  UNL1        0.0938
     22 C         138.6471  150.7440  155.3528 C.3     1  UNL1        0.0233
     23 C         138.2610  150.1281  156.6649 C.3     1  UNL1        0.0233
     24 C         138.7454  148.7084  156.6709 C.3     1  UNL1        0.0938
     25 C         138.8356  137.5772  163.3698 C.3     1  UNL1        0.1110
     26 C         139.6875  137.5807  164.6044 C.3     1  UNL1        0.0938
     27 C         137.8329  138.7740  167.0098 C.3     1  UNL1        0.0173
     28 C         139.0724  139.4100  166.4538 C.3     1  UNL1        0.0576
     29 C         139.6770  140.7062  166.9059 C.3     1  UNL1        0.0174
     30 C         140.9032  140.9587  166.0795 C.3     1  UNL1        0.0187
     31 C         141.0564  139.8186  165.1169 C.3     1  UNL1        0.0721
     32 N         139.9248  138.8615  165.3482 N.3     1  UNL1       -0.2725
@<TRIPOS>BOND
     1    28    27    1
     2    28    29    1
     3    29    30    1
     4    30    31    1
     5    31    32    1
     6    32    26    1
     7    26    25    1
     8    25     1    1
     9     1     2    1
    10     2     3    1
    11     3     4    1
    12     4     5   ar
    13     5     6   ar
    14     6    12    1
    15    12    13   ar
    16    13    14   ar
    17    14    15   ar
    18    15    18    1
    19    18    19    2
    20    18    20   am
    21    20    21    1
    22    21    22    1
    23    22    23    1
    24    23    24    1
    25    15    16   ar
    26    16    17   ar
    27     6     7   ar
    28     7     8   ar
    29     8     9   ar
    30     9    10    1
    31    10    11    2
    32    32    28    1
    33    10     1   am
    34     9     4   ar
    35    17    12   ar
    36    24    20    1
