@<TRIPOS>MOLECULE
*****
 31 33 0 0 0
SMALL
GASTEIGER

@<TRIPOS>ATOM
      1 C         137.8759  139.9104  163.8182 C.ar    1  UNL1        0.1409
      2 N         138.0096  140.0134  165.3087 N.ar    1  UNL1       -0.1986
      3 C         138.6178  138.8844  166.0869 C.ar    1  UNL1        0.2181
      4 N         139.0923  137.6525  165.3747 N.ar    1  UNL1       -0.2120
      5 C         138.9586  137.5495  163.8842 C.ar    1  UNL1        0.1091
      6 C         138.3504  138.6784  163.1060 C.ar    1  UNL1        0.1040
      7 C         138.2167  138.5754  161.6155 C.2     1  UNL1        0.2470
      8 N         139.2399  137.8191  160.8212 N.am    1  UNL1       -0.3252
      9 O         137.0597  139.2287  160.9194 O.2     1  UNL1       -0.2702
     10 H         139.9993  137.3904  161.2781 H       1  UNL1        0.1453
     11 H         139.1522  137.7515  159.8430 H       1  UNL1        0.1453
     12 N         137.2677  141.0392  163.0400 N.pl3   1  UNL1       -0.2977
     13 H         136.4875  140.8748  162.4625 H       1  UNL1        0.1536
     14 C         138.5318  145.1902  165.8987 C.3     1  UNL1        0.0311
     15 C         138.4803  144.4941  164.5709 C.ar    1  UNL1       -0.0206
     16 C         139.0093  145.1773  163.3449 C.ar    1  UNL1       -0.0042
     17 C         138.9578  144.4812  162.0172 C.ar    1  UNL1        0.0009
     18 C         138.3773  143.1019  161.9155 C.ar    1  UNL1        0.0146
     19 C         137.8482  142.4187  163.1416 C.ar    1  UNL1        0.0491
     20 C         137.8997  143.1147  164.4693 C.ar    1  UNL1        0.0104
     21 N         138.7515  138.9874  167.5774 N.pl3   1  UNL1       -0.3033
     22 H         138.4379  138.2519  168.1518 H       1  UNL1        0.1496
     23 C         139.3630  140.2111  168.1928 C.3     1  UNL1        0.0858
     24 C         140.2609  141.0925  167.3761 C.3     1  UNL1        0.0209
     25 C         140.8724  142.3162  167.9915 C.3     1  UNL1        0.0018
     26 C         140.5861  142.6585  169.4235 C.3     1  UNL1        0.0015
     27 C         139.6882  141.7770  170.2402 C.3     1  UNL1        0.0172
     28 C         139.0767  140.5534  169.6249 C.3     1  UNL1        0.0690
     29 N         138.1788  139.6720  170.4416 N.3     1  UNL1       -0.3209
     30 H         137.8549  138.8926  169.8688 H       1  UNL1        0.1189
     31 H         137.3765  140.2116  170.7664 H       1  UNL1        0.1189
@<TRIPOS>BOND
     1    14    15    1
     2    15    16   ar
     3    16    17   ar
     4    17    18   ar
     5    18    19   ar
     6    19    12    1
     7    12     1    1
     8     1     2   ar
     9     2     3   ar
    10     3    21    1
    11    23    21    1
    12    23    24    1
    13    24    25    1
    14    25    26    1
    15    26    27    1
    16    27    28    1
    17    28    29    1
    18     3     4   ar
    19     4     5   ar
    20     5     6   ar
    21     6     7    1
    22     7     8   am
    23     7     9    2
    24    19    20   ar
    25    20    15   ar
    26     6     1   ar
    27    28    23    1
    28    12    13    1
    29    21    22    1
    30    29    30    1
    31    29    31    1
    32     8    10    1
    33     8    11    1
@<TRIPOS>MOLECULE
*****
 31 33 0 0 0
SMALL
GASTEIGER

@<TRIPOS>ATOM
      1 C         141.8769  140.8991  167.2290 C.ar    1  UNL1        0.1409
      2 N         140.6877  140.3840  166.4738 N.ar    1  UNL1       -0.1986
      3 C         139.5056  139.8375  167.2183 C.ar    1  UNL1        0.2181
      4 N         139.5129  139.8061  168.7180 N.ar    1  UNL1       -0.2120
      5 C         140.7021  140.3212  169.4732 C.ar    1  UNL1        0.1091
      6 C         141.8841  140.8677  168.7288 C.ar    1  UNL1        0.1040
      7 C         143.0734  141.3829  169.4840 C.2     1  UNL1        0.2470
      8 N         143.6276  140.5983  170.6360 N.am    1  UNL1       -0.3252
      9 O         143.7084  142.6827  169.0871 O.2     1  UNL1       -0.2702
     10 H         143.2109  139.7452  170.8964 H       1  UNL1        0.1453
     11 H         144.4082  140.9364  171.1316 H       1  UNL1        0.1453
     12 N         143.0589  141.4456  166.4846 N.pl3   1  UNL1       -0.2977
     13 H         143.9386  141.0123  166.5715 H       1  UNL1        0.1536
     14 C         140.0056  144.7449  163.8784 C.3     1  UNL1        0.0311
     15 C         141.3739  144.3019  164.3047 C.ar    1  UNL1       -0.0206
     16 C         142.5837  145.0657  163.8541 C.ar    1  UNL1       -0.0042
     17 C         143.9519  144.6227  164.2804 C.ar    1  UNL1        0.0009
     18 C         144.1103  143.4161  165.1572 C.ar    1  UNL1        0.0146
     19 C         142.9005  142.6524  165.6078 C.ar    1  UNL1        0.0491
     20 C         141.5323  143.0953  165.1815 C.ar    1  UNL1        0.0104
     21 N         138.3164  139.3224  166.4631 N.pl3   1  UNL1       -0.3033
     22 H         137.4801  139.1189  166.9411 H       1  UNL1        0.1496
     23 C         138.4014  139.1172  164.9796 C.3     1  UNL1        0.0858
     24 C         138.8791  137.8059  164.4300 C.3     1  UNL1        0.0209
     25 C         138.9641  137.6008  162.9464 C.3     1  UNL1        0.0018
     26 C         138.5713  138.7070  162.0126 C.3     1  UNL1        0.0015
     27 C         138.0934  140.0183  162.5624 C.3     1  UNL1        0.0172
     28 C         138.0085  140.2234  164.0458 C.3     1  UNL1        0.0690
     29 N         137.5307  141.5348  164.5955 N.3     1  UNL1       -0.3209
     30 H         137.5364  141.4984  165.6149 H       1  UNL1        0.1189
     31 H         136.5821  141.7158  164.2670 H       1  UNL1        0.1189
@<TRIPOS>BOND
     1    14    15    1
     2    15    16   ar
     3    16    17   ar
     4    17    18   ar
     5    18    19   ar
     6    19    12    1
     7    12     1    1
     8     1     2   ar
     9     2     3   ar
    10     3    21    1
    11    23    21    1
    12    23    24    1
    13    24    25    1
    14    25    26    1
    15    26    27    1
    16    27    28    1
    17    28    29    1
    18     3     4   ar
    19     4     5   ar
    20     5     6   ar
    21     6     7    1
    22     7     8   am
    23     7     9    2
    24    19    20   ar
    25    20    15   ar
    26     6     1   ar
    27    28    23    1
    28    12    13    1
    29    21    22    1
    30    29    30    1
    31    29    31    1
    32     8    10    1
    33     8    11    1
@<TRIPOS>MOLECULE
*****
 31 33 0 0 0
SMALL
GASTEIGER

@<TRIPOS>ATOM
      1 C         140.1394  139.9238  166.5188 C.ar    1  UNL1        0.1409
      2 N         140.8514  140.6505  165.4165 N.ar    1  UNL1       -0.1986
      3 C         140.1467  140.9236  164.1208 C.ar    1  UNL1        0.2181
      4 N         138.7301  140.4700  163.9274 N.ar    1  UNL1       -0.2120
      5 C         138.0181  139.7434  165.0297 C.ar    1  UNL1        0.1091
      6 C         138.7227  139.4703  166.3253 C.ar    1  UNL1        0.1040
      7 C         138.0107  138.7436  167.4276 C.2     1  UNL1        0.2470
      8 N         137.2502  137.4860  167.1279 N.am    1  UNL1       -0.3252
      9 O         138.0593  139.2747  168.8297 O.2     1  UNL1       -0.2702
     10 H         137.2183  137.1375  166.2077 H       1  UNL1        0.1453
     11 H         136.7829  137.0091  167.8514 H       1  UNL1        0.1453
     12 N         140.8440  139.6507  167.8145 N.pl3   1  UNL1       -0.2977
     13 H         140.9223  138.7274  168.1472 H       1  UNL1        0.1536
     14 C         140.3354  144.3172  170.0427 C.3     1  UNL1        0.0311
     15 C         141.1751  143.1176  169.7175 C.ar    1  UNL1       -0.0206
     16 C         142.6001  143.0515  170.1811 C.ar    1  UNL1       -0.0042
     17 C         143.4397  141.8518  169.8559 C.ar    1  UNL1        0.0009
     18 C         142.8544  140.7182  169.0671 C.ar    1  UNL1        0.0146
     19 C         141.4294  140.7843  168.6034 C.ar    1  UNL1        0.0491
     20 C         140.5898  141.9840  168.9286 C.ar    1  UNL1        0.0104
     21 N         140.8587  141.6502  163.0185 N.pl3   1  UNL1       -0.3033
     22 H         140.7344  141.3694  162.0831 H       1  UNL1        0.1496
     23 C         141.7602  142.8049  163.3414 C.3     1  UNL1        0.0858
     24 C         141.2151  144.2022  163.3508 C.3     1  UNL1        0.0209
     25 C         142.1166  145.3569  163.6736 C.3     1  UNL1        0.0018
     26 C         143.5632  145.1141  163.9871 C.3     1  UNL1        0.0015
     27 C         144.1084  143.7166  163.9777 C.3     1  UNL1        0.0172
     28 C         143.2069  142.5620  163.6548 C.3     1  UNL1        0.0690
     29 N         143.7520  141.1646  163.6454 N.3     1  UNL1       -0.3209
     30 H         143.0064  140.5104  163.4078 H       1  UNL1        0.1189
     31 H         144.1219  140.9377  164.5685 H       1  UNL1        0.1189
@<TRIPOS>BOND
     1    14    15    1
     2    15    16   ar
     3    16    17   ar
     4    17    18   ar
     5    18    19   ar
     6    19    12    1
     7    12     1    1
     8     1     2   ar
     9     2     3   ar
    10     3    21    1
    11    23    21    1
    12    23    24    1
    13    24    25    1
    14    25    26    1
    15    26    27    1
    16    27    28    1
    17    28    29    1
    18     3     4   ar
    19     4     5   ar
    20     5     6   ar
    21     6     7    1
    22     7     8   am
    23     7     9    2
    24    19    20   ar
    25    20    15   ar
    26     6     1   ar
    27    28    23    1
    28    12    13    1
    29    21    22    1
    30    29    30    1
    31    29    31    1
    32     8    10    1
    33     8    11    1
@<TRIPOS>MOLECULE
*****
 31 33 0 0 0
SMALL
GASTEIGER

@<TRIPOS>ATOM
      1 C         141.9942  141.4157  167.3399 C.ar    1  UNL1        0.1409
      2 N         140.8480  141.0575  166.4411 N.ar    1  UNL1       -0.1986
      3 C         139.6923  140.2665  166.9786 C.ar    1  UNL1        0.2181
      4 N         139.6829  139.8337  168.4148 N.ar    1  UNL1       -0.2120
      5 C         140.8292  140.1920  169.3135 C.ar    1  UNL1        0.1091
      6 C         141.9848  140.9829  168.7761 C.ar    1  UNL1        0.1040
      7 C         143.1311  141.3412  169.6749 C.2     1  UNL1        0.2470
      8 N         143.5616  140.3937  170.7551 N.am    1  UNL1       -0.3252
      9 O         143.8468  142.6469  169.4934 O.2     1  UNL1       -0.2702
     10 H         143.0919  139.5368  170.8742 H       1  UNL1        0.1453
     11 H         144.3140  140.6289  171.3450 H       1  UNL1        0.1453
     12 N         143.1498  142.2067  166.8025 N.pl3   1  UNL1       -0.2977
     13 H         143.5065  142.9676  167.3154 H       1  UNL1        0.1536
     14 C         143.8768  138.7569  162.9854 C.3     1  UNL1        0.0311
     15 C         144.1255  140.1136  163.5750 C.ar    1  UNL1       -0.0206
     16 C         144.9864  141.1019  162.8457 C.ar    1  UNL1       -0.0042
     17 C         145.2351  142.4586  163.4353 C.ar    1  UNL1        0.0009
     18 C         144.6229  142.8269  164.7542 C.ar    1  UNL1        0.0146
     19 C         143.7620  141.8385  165.4835 C.ar    1  UNL1        0.0491
     20 C         143.5133  140.4818  164.8939 C.ar    1  UNL1        0.0104
     21 N         138.5460  139.9083  166.0798 N.pl3   1  UNL1       -0.3033
     22 H         137.6215  140.0905  166.3648 H       1  UNL1        0.1496
     23 C         138.8085  139.2723  164.7469 C.3     1  UNL1        0.0858
     24 C         139.7515  138.1104  164.6429 C.3     1  UNL1        0.0209
     25 C         140.0139  137.4744  163.3099 C.3     1  UNL1        0.0018
     26 C         139.3334  138.0003  162.0810 C.3     1  UNL1        0.0015
     27 C         138.3903  139.1623  162.1851 C.3     1  UNL1        0.0172
     28 C         138.1279  139.7982  163.5180 C.3     1  UNL1        0.0690
     29 N         137.1849  140.9601  163.6220 N.3     1  UNL1       -0.3209
     30 H         137.1259  141.2641  164.5938 H       1  UNL1        0.1189
     31 H         136.2601  140.6775  163.2975 H       1  UNL1        0.1189
@<TRIPOS>BOND
     1    14    15    1
     2    15    16   ar
     3    16    17   ar
     4    17    18   ar
     5    18    19   ar
     6    19    12    1
     7    12     1    1
     8     1     2   ar
     9     2     3   ar
    10     3    21    1
    11    23    21    1
    12    23    24    1
    13    24    25    1
    14    25    26    1
    15    26    27    1
    16    27    28    1
    17    28    29    1
    18     3     4   ar
    19     4     5   ar
    20     5     6   ar
    21     6     7    1
    22     7     8   am
    23     7     9    2
    24    19    20   ar
    25    20    15   ar
    26     6     1   ar
    27    28    23    1
    28    12    13    1
    29    21    22    1
    30    29    30    1
    31    29    31    1
    32     8    10    1
    33     8    11    1
@<TRIPOS>MOLECULE
*****
 31 33 0 0 0
SMALL
GASTEIGER

@<TRIPOS>ATOM
      1 C         140.0023  140.0672  165.1787 C.ar    1  UNL1        0.1409
      2 N         140.3312  140.3293  166.6185 N.ar    1  UNL1       -0.1986
      3 C         139.5135  139.6919  167.7026 C.ar    1  UNL1        0.2181
      4 N         138.3671  138.7924  167.3469 N.ar    1  UNL1       -0.2120
      5 C         138.0383  138.5303  165.9070 C.ar    1  UNL1        0.1091
      6 C         138.8558  139.1677  164.8229 C.ar    1  UNL1        0.1040
      7 C         138.5270  138.9056  163.3831 C.2     1  UNL1        0.2470
      8 N         138.6222  137.5132  162.8335 N.am    1  UNL1       -0.3252
      9 O         138.1030  140.0360  162.4928 O.2     1  UNL1       -0.2702
     10 H         138.9005  136.7713  163.4178 H       1  UNL1        0.1453
     11 H         138.4064  137.3412  161.8885 H       1  UNL1        0.1453
     12 N         140.8199  140.7046  164.0946 N.pl3   1  UNL1       -0.2977
     13 H         141.2939  140.1421  163.4403 H       1  UNL1        0.1536
     14 C         143.6975  145.0281  163.9302 C.3     1  UNL1        0.0311
     15 C         142.3541  144.3608  163.9253 C.ar    1  UNL1       -0.0206
     16 C         141.1062  145.1879  163.8332 C.ar    1  UNL1       -0.0042
     17 C         139.7628  144.5206  163.8282 C.ar    1  UNL1        0.0009
     18 C         139.6673  143.0262  163.9153 C.ar    1  UNL1        0.0146
     19 C         140.9153  142.1991  164.0075 C.ar    1  UNL1        0.0491
     20 C         142.2587  142.8664  164.0124 C.ar    1  UNL1        0.0104
     21 N         139.8423  139.9540  169.1425 N.pl3   1  UNL1       -0.3033
     22 H         139.3651  139.4673  169.8529 H       1  UNL1        0.1496
     23 C         140.8983  140.9576  169.5000 C.3     1  UNL1        0.0858
     24 C         140.5225  142.3910  169.7330 C.3     1  UNL1        0.0209
     25 C         141.5785  143.3946  170.0905 C.3     1  UNL1        0.0018
     26 C         143.0102  142.9648  170.2149 C.3     1  UNL1        0.0015
     27 C         143.3860  141.5314  169.9818 C.3     1  UNL1        0.0172
     28 C         142.3300  140.5279  169.6244 C.3     1  UNL1        0.0690
     29 N         142.7058  139.0945  169.3913 N.3     1  UNL1       -0.3209
     30 H         141.8701  138.5572  169.1601 H       1  UNL1        0.1189
     31 H         143.1323  138.7132  170.2358 H       1  UNL1        0.1189
@<TRIPOS>BOND
     1    14    15    1
     2    15    16   ar
     3    16    17   ar
     4    17    18   ar
     5    18    19   ar
     6    19    12    1
     7    12     1    1
     8     1     2   ar
     9     2     3   ar
    10     3    21    1
    11    23    21    1
    12    23    24    1
    13    24    25    1
    14    25    26    1
    15    26    27    1
    16    27    28    1
    17    28    29    1
    18     3     4   ar
    19     4     5   ar
    20     5     6   ar
    21     6     7    1
    22     7     8   am
    23     7     9    2
    24    19    20   ar
    25    20    15   ar
    26     6     1   ar
    27    28    23    1
    28    12    13    1
    29    21    22    1
    30    29    30    1
    31    29    31    1
    32     8    10    1
    33     8    11    1
@<TRIPOS>MOLECULE
*****
 31 33 0 0 0
SMALL
GASTEIGER

@<TRIPOS>ATOM
      1 C         141.1030  141.9249  167.3356 C.ar    1  UNL1        0.1409
      2 N         141.9325  141.0376  166.4555 N.ar    1  UNL1       -0.1986
      3 C         142.5850  139.8135  167.0264 C.ar    1  UNL1        0.2181
      4 N         142.4080  139.4768  168.4773 N.ar    1  UNL1       -0.2120
      5 C         141.5785  140.3641  169.3574 C.ar    1  UNL1        0.1091
      6 C         140.9260  141.5881  168.7866 C.ar    1  UNL1        0.1040
      7 C         140.0965  142.4755  169.6667 C.2     1  UNL1        0.2470
      8 N         139.1871  141.8724  170.6958 N.am    1  UNL1       -0.3252
      9 O         140.1765  143.9659  169.5177 O.2     1  UNL1       -0.2702
     10 H         139.1346  140.8942  170.7937 H       1  UNL1        0.1453
     11 H         138.6426  142.4548  171.2735 H       1  UNL1        0.1453
     12 N         140.4505  143.1490  166.7648 N.pl3   1  UNL1       -0.2977
     13 H         140.6499  144.0353  167.1441 H       1  UNL1        0.1536
     14 C         137.8932  140.1906  163.3430 C.3     1  UNL1        0.0311
     15 C         138.2155  141.5434  163.9052 C.ar    1  UNL1       -0.0206
     16 C         137.5815  142.7697  163.3188 C.ar    1  UNL1       -0.0042
     17 C         137.9038  144.1225  163.8810 C.ar    1  UNL1        0.0009
     18 C         138.8601  144.2490  165.0296 C.ar    1  UNL1        0.0146
     19 C         139.4941  143.0226  165.6161 C.ar    1  UNL1        0.0491
     20 C         139.1718  141.6698  165.0539 C.ar    1  UNL1        0.0104
     21 N         143.4145  138.9262  166.1463 N.pl3   1  UNL1       -0.3033
     22 H         144.2995  138.6200  166.4501 H       1  UNL1        0.1496
     23 C         142.8955  138.5053  164.8032 C.3     1  UNL1        0.0858
     24 C         141.5797  137.7930  164.6972 C.3     1  UNL1        0.0209
     25 C         141.0608  137.3721  163.3542 C.3     1  UNL1        0.0018
     26 C         141.8577  137.6636  162.1173 C.3     1  UNL1        0.0015
     27 C         143.1736  138.3759  162.2234 C.3     1  UNL1        0.0172
     28 C         143.6924  138.7967  163.5663 C.3     1  UNL1        0.0690
     29 N         145.0083  139.5090  163.6724 N.3     1  UNL1       -0.3209
     30 H         145.2036  139.7184  164.6514 H       1  UNL1        0.1189
     31 H         144.9683  140.3783  163.1403 H       1  UNL1        0.1189
@<TRIPOS>BOND
     1    14    15    1
     2    15    16   ar
     3    16    17   ar
     4    17    18   ar
     5    18    19   ar
     6    19    12    1
     7    12     1    1
     8     1     2   ar
     9     2     3   ar
    10     3    21    1
    11    23    21    1
    12    23    24    1
    13    24    25    1
    14    25    26    1
    15    26    27    1
    16    27    28    1
    17    28    29    1
    18     3     4   ar
    19     4     5   ar
    20     5     6   ar
    21     6     7    1
    22     7     8   am
    23     7     9    2
    24    19    20   ar
    25    20    15   ar
    26     6     1   ar
    27    28    23    1
    28    12    13    1
    29    21    22    1
    30    29    30    1
    31    29    31    1
    32     8    10    1
    33     8    11    1
@<TRIPOS>MOLECULE
*****
 31 33 0 0 0
SMALL
GASTEIGER

@<TRIPOS>ATOM
      1 C         140.1428  139.6197  167.1085 C.ar    1  UNL1        0.1409
      2 N         141.2356  139.1744  166.1825 N.ar    1  UNL1       -0.1986
      3 C         142.6463  139.0711  166.6820 C.ar    1  UNL1        0.2181
      4 N         142.9641  139.4131  168.1074 N.ar    1  UNL1       -0.2120
      5 C         141.8713  139.8584  169.0335 C.ar    1  UNL1        0.1091
      6 C         140.4607  139.9617  168.5340 C.ar    1  UNL1        0.1040
      7 C         139.3679  140.4069  169.4601 C.2     1  UNL1        0.2470
      8 N         139.5239  141.6720  170.2507 N.am    1  UNL1       -0.3252
      9 O         138.1191  139.5870  169.5954 O.2     1  UNL1       -0.2702
     10 H         140.3435  142.2101  170.1618 H       1  UNL1        0.1453
     11 H         138.8066  141.9643  170.8585 H       1  UNL1        0.1453
     12 N         138.7322  139.7229  166.6091 N.pl3   1  UNL1       -0.2977
     13 H         137.9810  139.5075  167.2078 H       1  UNL1        0.1536
     14 C         137.7503  143.4859  163.1629 C.3     1  UNL1        0.0311
     15 C         137.9752  142.0359  163.4743 C.ar    1  UNL1       -0.0206
     16 C         137.9339  141.0174  162.3739 C.ar    1  UNL1       -0.0042
     17 C         138.1588  139.5674  162.6852 C.ar    1  UNL1        0.0009
     18 C         138.4249  139.1359  164.0969 C.ar    1  UNL1        0.0146
     19 C         138.4661  140.1544  165.1973 C.ar    1  UNL1        0.0491
     20 C         138.2413  141.6044  164.8860 C.ar    1  UNL1        0.0104
     21 N         143.7391  138.6259  165.7559 N.pl3   1  UNL1       -0.3033
     22 H         144.3054  137.8573  165.9964 H       1  UNL1        0.1496
     23 C         143.9690  139.3517  164.4635 C.3     1  UNL1        0.0858
     24 C         144.9939  140.4444  164.3889 C.3     1  UNL1        0.0209
     25 C         145.2239  141.1701  163.0965 C.3     1  UNL1        0.0018
     26 C         144.4289  140.8032  161.8785 C.3     1  UNL1        0.0015
     27 C         143.4040  139.7104  161.9531 C.3     1  UNL1        0.0172
     28 C         143.1741  138.9847  163.2455 C.3     1  UNL1        0.0690
     29 N         142.1491  137.8919  163.3201 N.3     1  UNL1       -0.3209
     30 H         142.1260  137.5115  164.2662 H       1  UNL1        0.1189
     31 H         142.3927  137.1518  162.6619 H       1  UNL1        0.1189
@<TRIPOS>BOND
     1    14    15    1
     2    15    16   ar
     3    16    17   ar
     4    17    18   ar
     5    18    19   ar
     6    19    12    1
     7    12     1    1
     8     1     2   ar
     9     2     3   ar
    10     3    21    1
    11    23    21    1
    12    23    24    1
    13    24    25    1
    14    25    26    1
    15    26    27    1
    16    27    28    1
    17    28    29    1
    18     3     4   ar
    19     4     5   ar
    20     5     6   ar
    21     6     7    1
    22     7     8   am
    23     7     9    2
    24    19    20   ar
    25    20    15   ar
    26     6     1   ar
    27    28    23    1
    28    12    13    1
    29    21    22    1
    30    29    30    1
    31    29    31    1
    32     8    10    1
    33     8    11    1
@<TRIPOS>MOLECULE
*****
 31 33 0 0 0
SMALL
GASTEIGER

@<TRIPOS>ATOM
      1 C         142.0146  140.1483  167.0488 C.ar    1  UNL1        0.1409
      2 N         140.9419  140.4747  166.0525 N.ar    1  UNL1       -0.1986
      3 C         139.5093  140.5506  166.4907 C.ar    1  UNL1        0.2181
      4 N         139.1495  140.3002  167.9252 N.ar    1  UNL1       -0.2120
      5 C         140.2222  139.9738  168.9215 C.ar    1  UNL1        0.1091
      6 C         141.6548  139.8978  168.4834 C.ar    1  UNL1        0.1040
      7 C         142.7275  139.5714  169.4797 C.2     1  UNL1        0.2470
      8 N         143.4142  140.6735  170.2305 N.am    1  UNL1       -0.3252
      9 O         143.1134  138.1428  169.7253 O.2     1  UNL1       -0.2702
     10 H         143.1609  141.6111  170.0693 H       1  UNL1        0.1453
     11 H         144.1183  140.4593  170.8844 H       1  UNL1        0.1453
     12 N         143.4472  140.0723  166.6107 N.pl3   1  UNL1       -0.2977
     13 H         144.0760  139.4807  167.0840 H       1  UNL1        0.1536
     14 C         143.8582  144.6737  164.2320 C.3     1  UNL1        0.0311
     15 C         144.1272  143.1983  164.2622 C.ar    1  UNL1       -0.0206
     16 C         144.8709  142.5483  163.1333 C.ar    1  UNL1       -0.0042
     17 C         145.1399  141.0729  163.1635 C.ar    1  UNL1        0.0009
     18 C         144.6654  140.2476  164.3226 C.ar    1  UNL1        0.0146
     19 C         143.9218  140.8976  165.4515 C.ar    1  UNL1        0.0491
     20 C         143.6527  142.3730  165.4213 C.ar    1  UNL1        0.0104
     21 N         138.4366  140.8770  165.4943 N.pl3   1  UNL1       -0.3033
     22 H         137.7025  140.2406  165.3351 H       1  UNL1        0.1496
     23 C         138.4823  142.1731  164.7405 C.3     1  UNL1        0.0858
     24 C         139.3527  143.2935  165.2274 C.3     1  UNL1        0.0209
     25 C         139.3985  144.5896  164.4736 C.3     1  UNL1        0.0018
     26 C         138.5738  144.7652  163.2329 C.3     1  UNL1        0.0015
     27 C         137.7034  143.6447  162.7461 C.3     1  UNL1        0.0172
     28 C         137.6577  142.3487  163.4999 C.3     1  UNL1        0.0690
     29 N         136.7873  141.2282  163.0131 N.3     1  UNL1       -0.3209
     30 H         136.8783  140.4295  163.6410 H       1  UNL1        0.1189
     31 H         137.0765  140.9566  162.0734 H       1  UNL1        0.1189
@<TRIPOS>BOND
     1    14    15    1
     2    15    16   ar
     3    16    17   ar
     4    17    18   ar
     5    18    19   ar
     6    19    12    1
     7    12     1    1
     8     1     2   ar
     9     2     3   ar
    10     3    21    1
    11    23    21    1
    12    23    24    1
    13    24    25    1
    14    25    26    1
    15    26    27    1
    16    27    28    1
    17    28    29    1
    18     3     4   ar
    19     4     5   ar
    20     5     6   ar
    21     6     7    1
    22     7     8   am
    23     7     9    2
    24    19    20   ar
    25    20    15   ar
    26     6     1   ar
    27    28    23    1
    28    12    13    1
    29    21    22    1
    30    29    30    1
    31    29    31    1
    32     8    10    1
    33     8    11    1
@<TRIPOS>MOLECULE
*****
 31 33 0 0 0
SMALL
GASTEIGER

@<TRIPOS>ATOM
      1 C         140.8838  139.1912  164.9217 C.ar    1  UNL1        0.1409
      2 N         141.0170  139.4604  166.3914 N.ar    1  UNL1       -0.1986
      3 C         139.7903  139.5739  167.2472 C.ar    1  UNL1        0.2181
      4 N         138.4305  139.4182  166.6335 N.ar    1  UNL1       -0.2120
      5 C         138.2973  139.1490  165.1638 C.ar    1  UNL1        0.1091
      6 C         139.5239  139.0355  164.3080 C.ar    1  UNL1        0.1040
      7 C         139.3908  138.7663  162.8384 C.2     1  UNL1        0.2470
      8 N         138.5484  137.6216  162.3589 N.am    1  UNL1       -0.3252
      9 O         140.1000  139.6420  161.8482 O.2     1  UNL1       -0.2702
     10 H         138.0830  137.0469  163.0087 H       1  UNL1        0.1453
     11 H         138.4610  137.4449  161.3943 H       1  UNL1        0.1453
     12 N         142.1104  139.0777  164.0659 N.pl3   1  UNL1       -0.2977
     13 H         142.2504  138.2773  163.5100 H       1  UNL1        0.1536
     14 C         143.2380  144.1487  164.1825 C.3     1  UNL1        0.0311
     15 C         143.6875  142.7192  164.1153 C.ar    1  UNL1       -0.0206
     16 C         145.1502  142.3957  164.0392 C.ar    1  UNL1       -0.0042
     17 C         145.5996  140.9662  163.9719 C.ar    1  UNL1        0.0009
     18 C         144.5864  139.8602  163.9808 C.ar    1  UNL1        0.0146
     19 C         143.1237  140.1837  164.0570 C.ar    1  UNL1        0.0491
     20 C         142.6743  141.6132  164.1242 C.ar    1  UNL1        0.0104
     21 N         139.9234  139.8431  168.7169 N.pl3   1  UNL1       -0.3033
     22 H         139.3747  139.3401  169.3611 H       1  UNL1        0.1496
     23 C         140.8928  140.8787  169.2048 C.3     1  UNL1        0.0858
     24 C         140.4232  142.2775  169.4745 C.3     1  UNL1        0.0209
     25 C         141.3925  143.3131  169.9625 C.3     1  UNL1        0.0018
     26 C         142.8314  142.9498  170.1807 C.3     1  UNL1        0.0015
     27 C         143.3009  141.5509  169.9110 C.3     1  UNL1        0.0172
     28 C         142.3316  140.5154  169.4231 C.3     1  UNL1        0.0690
     29 N         142.8012  139.1165  169.1534 N.3     1  UNL1       -0.3209
     30 H         142.0162  138.5506  168.8308 H       1  UNL1        0.1189
     31 H         143.1809  138.7142  170.0103 H       1  UNL1        0.1189
@<TRIPOS>BOND
     1    14    15    1
     2    15    16   ar
     3    16    17   ar
     4    17    18   ar
     5    18    19   ar
     6    19    12    1
     7    12     1    1
     8     1     2   ar
     9     2     3   ar
    10     3    21    1
    11    23    21    1
    12    23    24    1
    13    24    25    1
    14    25    26    1
    15    26    27    1
    16    27    28    1
    17    28    29    1
    18     3     4   ar
    19     4     5   ar
    20     5     6   ar
    21     6     7    1
    22     7     8   am
    23     7     9    2
    24    19    20   ar
    25    20    15   ar
    26     6     1   ar
    27    28    23    1
    28    12    13    1
    29    21    22    1
    30    29    30    1
    31    29    31    1
    32     8    10    1
    33     8    11    1
