@<TRIPOS>MOLECULE
*****
 29 31 0 0 0
SMALL
GASTEIGER

@<TRIPOS>ATOM
      1 O         140.8887  143.4053  160.9329 O.2     1  UNL1       -0.2525
      2 C         141.3698  144.8198  161.0658 C.2     1  UNL1        0.3045
      3 N         141.6699  145.6284  159.8384 N.am    1  UNL1       -0.2887
      4 N         141.5508  145.4258  162.4259 N.am    1  UNL1       -0.2670
      5 H         141.9857  146.5568  159.9256 H       1  UNL1        0.1510
      6 H         141.8666  146.3542  162.5131 H       1  UNL1        0.1565
      7 C         141.2507  144.6173  163.6531 C.ar    1  UNL1        0.0709
      8 C         139.9166  144.7440  164.3271 C.ar    1  UNL1        0.0178
      9 C         139.6165  143.9354  165.5544 C.ar    1  UNL1        0.0204
     10 C         140.6504  143.0001  166.1076 C.ar    1  UNL1        0.0814
     11 N         141.9845  142.8734  165.4337 N.ar    1  UNL1       -0.2425
     12 C         142.2846  143.6819  164.2064 C.ar    1  UNL1        0.1135
     13 C         140.3503  142.1915  167.3349 C.ar    1  UNL1        0.0178
     14 C         140.4334  142.8275  168.6909 C.ar    1  UNL1        0.0038
     15 C         140.1334  142.0190  169.9181 C.ar    1  UNL1        0.0297
     16 C         139.7502  140.5745  169.7894 C.ar    1  UNL1        0.1401
     17 F         139.4501  139.7659  171.0167 F       1  UNL1       -0.2042
     18 C         139.6671  139.9385  168.4335 C.ar    1  UNL1        0.0297
     19 C         139.9671  140.7470  167.2062 C.ar    1  UNL1        0.0038
     20 C         141.4889  145.0224  158.4783 C.3     1  UNL1        0.0910
     21 C         141.2756  145.9067  157.2857 C.3     1  UNL1        0.0227
     22 C         140.1429  145.6321  156.3414 C.3     1  UNL1        0.0191
     23 C         139.9726  146.4716  155.1101 C.3     1  UNL1        0.0721
     24 N         139.5500  147.9057  155.2326 N.3     1  UNL1       -0.2727
     25 C         138.7259  148.3471  156.4056 C.3     1  UNL1        0.0721
     26 C         138.3034  149.7811  156.5280 C.3     1  UNL1        0.0174
     27 C         138.7050  150.7737  155.4775 C.3     1  UNL1        0.0029
     28 C         139.5291  150.3322  154.3046 C.3     1  UNL1        0.0174
     29 C         139.9516  148.8982  154.1821 C.3     1  UNL1        0.0721
@<TRIPOS>BOND
     1     1     2    2
     2     2     3   am
     3     3    20    1
     4    20    21    1
     5    21    22    1
     6    22    23    1
     7    23    24    1
     8    24    25    1
     9    25    26    1
    10    26    27    1
    11    27    28    1
    12    28    29    1
    13     2     4   am
    14     4     7    1
    15     7     8   ar
    16     8     9   ar
    17     9    10   ar
    18    10    13    1
    19    13    14   ar
    20    14    15   ar
    21    15    16   ar
    22    16    17    1
    23    16    18   ar
    24    18    19   ar
    25    10    11   ar
    26    11    12   ar
    27    29    24    1
    28    12     7   ar
    29    19    13   ar
    30     3     5    1
    31     4     6    1
@<TRIPOS>MOLECULE
*****
 29 31 0 0 0
SMALL
GASTEIGER

@<TRIPOS>ATOM
      1 O         140.7190  143.4013  160.9133 O.2     1  UNL1       -0.2525
      2 C         141.4586  144.6999  161.0425 C.2     1  UNL1        0.3045
      3 N         141.8327  145.4753  159.8141 N.am    1  UNL1       -0.2887
      4 N         141.8240  145.2231  162.3999 N.am    1  UNL1       -0.2670
      5 H         142.3180  146.3277  159.8989 H       1  UNL1        0.1510
      6 H         142.3093  146.0755  162.4847 H       1  UNL1        0.1565
      7 C         141.4499  144.4477  163.6282 C.ar    1  UNL1        0.0709
      8 C         142.4213  143.4726  164.2244 C.ar    1  UNL1        0.0178
      9 C         142.0471  142.6972  165.4528 C.ar    1  UNL1        0.0204
     10 C         140.7016  142.8969  166.0848 C.ar    1  UNL1        0.0814
     11 N         139.7301  143.8720  165.4886 N.ar    1  UNL1       -0.2425
     12 C         140.1042  144.6474  164.2604 C.ar    1  UNL1        0.1135
     13 C         140.3274  142.1214  167.3132 C.ar    1  UNL1        0.0178
     14 C         140.4668  142.7497  168.6681 C.ar    1  UNL1        0.0038
     15 C         140.0926  141.9743  169.8964 C.ar    1  UNL1        0.0297
     16 C         139.5791  140.5707  169.7698 C.ar    1  UNL1        0.1401
     17 F         139.2049  139.7953  170.9982 F       1  UNL1       -0.2042
     18 C         139.4397  139.9424  168.4149 C.ar    1  UNL1        0.0297
     19 C         139.8139  140.7178  167.1866 C.ar    1  UNL1        0.0038
     20 C         141.4673  144.9521  158.4567 C.3     1  UNL1        0.0910
     21 C         142.3153  143.9004  157.8051 C.3     1  UNL1        0.0227
     22 C         143.4992  143.3348  158.5322 C.3     1  UNL1        0.0191
     23 C         143.5008  141.8967  158.9583 C.3     1  UNL1        0.0721
     24 N         143.9848  141.5206  160.3275 N.3     1  UNL1       -0.2727
     25 C         143.6987  140.1538  160.8749 C.3     1  UNL1        0.0721
     26 C         144.1827  139.7778  162.2440 C.3     1  UNL1        0.0174
     27 C         144.9528  140.7687  163.0655 C.3     1  UNL1        0.0029
     28 C         145.2390  142.1356  162.5181 C.3     1  UNL1        0.0174
     29 C         144.7550  142.5115  161.1490 C.3     1  UNL1        0.0721
@<TRIPOS>BOND
     1     1     2    2
     2     2     3   am
     3     3    20    1
     4    20    21    1
     5    21    22    1
     6    22    23    1
     7    23    24    1
     8    24    25    1
     9    25    26    1
    10    26    27    1
    11    27    28    1
    12    28    29    1
    13     2     4   am
    14     4     7    1
    15     7     8   ar
    16     8     9   ar
    17     9    10   ar
    18    10    13    1
    19    13    14   ar
    20    14    15   ar
    21    15    16   ar
    22    16    17    1
    23    16    18   ar
    24    18    19   ar
    25    10    11   ar
    26    11    12   ar
    27    29    24    1
    28    12     7   ar
    29    19    13   ar
    30     3     5    1
    31     4     6    1
@<TRIPOS>MOLECULE
*****
 29 31 0 0 0
SMALL
GASTEIGER

@<TRIPOS>ATOM
      1 O         141.3491  138.9864  160.5976 O.2     1  UNL1       -0.2525
      2 C         142.5518  138.1065  160.4260 C.2     1  UNL1        0.3045
      3 N         142.9703  137.6675  159.0541 N.am    1  UNL1       -0.2887
      4 N         143.3359  137.6656  161.6263 N.am    1  UNL1       -0.2670
      5 H         143.7596  137.0900  158.9415 H       1  UNL1        0.1510
      6 H         144.1252  137.0881  161.5137 H       1  UNL1        0.1565
      7 C         142.9173  138.1046  162.9982 C.ar    1  UNL1        0.0709
      8 C         143.7228  139.1335  163.7348 C.ar    1  UNL1        0.0178
      9 C         143.3042  139.5725  165.1067 C.ar    1  UNL1        0.0204
     10 C         142.0802  138.9826  165.7420 C.ar    1  UNL1        0.0814
     11 N         141.2747  137.9536  165.0055 N.ar    1  UNL1       -0.2425
     12 C         141.6932  137.5146  163.6336 C.ar    1  UNL1        0.1135
     13 C         141.6616  139.4215  167.1139 C.ar    1  UNL1        0.0178
     14 C         142.6267  139.3279  168.2584 C.ar    1  UNL1        0.0038
     15 C         142.2081  139.7668  169.6303 C.ar    1  UNL1        0.0297
     16 C         140.8245  140.2994  169.8577 C.ar    1  UNL1        0.1401
     17 F         140.4059  140.7384  171.2296 F       1  UNL1       -0.2042
     18 C         139.8594  140.3931  168.7133 C.ar    1  UNL1        0.0297
     19 C         140.2779  139.9541  167.3414 C.ar    1  UNL1        0.0038
     20 C         142.1862  138.1084  157.8538 C.3     1  UNL1        0.0910
     21 C         141.7930  137.1092  156.8064 C.3     1  UNL1        0.0227
     22 C         142.7328  135.9996  156.4381 C.3     1  UNL1        0.0191
     23 C         142.1996  134.6240  156.1672 C.3     1  UNL1        0.0721
     24 N         142.9599  133.4190  156.6364 N.3     1  UNL1       -0.2727
     25 C         142.4721  132.0432  156.2913 C.3     1  UNL1        0.0721
     26 C         143.2324  130.8383  156.7606 C.3     1  UNL1        0.0174
     27 C         144.4804  131.0093  157.5749 C.3     1  UNL1        0.0029
     28 C         144.9682  132.3851  157.9200 C.3     1  UNL1        0.0174
     29 C         144.2079  133.5900  157.4508 C.3     1  UNL1        0.0721
@<TRIPOS>BOND
     1     1     2    2
     2     2     3   am
     3     3    20    1
     4    20    21    1
     5    21    22    1
     6    22    23    1
     7    23    24    1
     8    24    25    1
     9    25    26    1
    10    26    27    1
    11    27    28    1
    12    28    29    1
    13     2     4   am
    14     4     7    1
    15     7     8   ar
    16     8     9   ar
    17     9    10   ar
    18    10    13    1
    19    13    14   ar
    20    14    15   ar
    21    15    16   ar
    22    16    17    1
    23    16    18   ar
    24    18    19   ar
    25    10    11   ar
    26    11    12   ar
    27    29    24    1
    28    12     7   ar
    29    19    13   ar
    30     3     5    1
    31     4     6    1
@<TRIPOS>MOLECULE
*****
 29 31 0 0 0
SMALL
GASTEIGER

@<TRIPOS>ATOM
      1 O         141.3128  143.2579  160.6613 O.2     1  UNL1       -0.2525
      2 C         141.8739  144.6483  160.7039 C.2     1  UNL1        0.3045
      3 N         141.8124  145.5196  159.4844 N.am    1  UNL1       -0.2887
      4 N         142.4965  145.1675  161.9659 N.am    1  UNL1       -0.2670
      5 H         142.1807  146.4322  159.5123 H       1  UNL1        0.1510
      6 H         142.8648  146.0800  161.9939 H       1  UNL1        0.1565
      7 C         142.5580  144.2962  163.1854 C.ar    1  UNL1        0.0709
      8 C         143.8716  143.7307  163.6377 C.ar    1  UNL1        0.0178
      9 C         143.9330  142.8594  164.8572 C.ar    1  UNL1        0.0204
     10 C         142.6809  142.5535  165.6243 C.ar    1  UNL1        0.0814
     11 N         141.3672  143.1190  165.1719 N.ar    1  UNL1       -0.2425
     12 C         141.3058  143.9903  163.9525 C.ar    1  UNL1        0.1135
     13 C         142.7423  141.6822  166.8438 C.ar    1  UNL1        0.0178
     14 C         142.5759  140.1972  166.7136 C.ar    1  UNL1        0.0038
     15 C         142.6373  139.3258  167.9330 C.ar    1  UNL1        0.0297
     16 C         142.8651  139.9396  169.2825 C.ar    1  UNL1        0.1401
     17 F         142.9266  139.0682  170.5020 F       1  UNL1       -0.2042
     18 C         143.0315  141.4246  169.4127 C.ar    1  UNL1        0.0297
     19 C         142.9701  142.2959  168.1933 C.ar    1  UNL1        0.0038
     20 C         141.1898  145.0005  158.2223 C.3     1  UNL1        0.0910
     21 C         140.9570  145.9260  157.0651 C.3     1  UNL1        0.0227
     22 C         139.6525  145.8886  156.3255 C.3     1  UNL1        0.0191
     23 C         139.5187  146.5875  155.0050 C.3     1  UNL1        0.0721
     24 N         139.3726  148.0796  154.9576 N.3     1  UNL1       -0.2727
     25 C         138.6670  148.7998  156.0683 C.3     1  UNL1        0.0721
     26 C         138.5209  150.2919  156.0208 C.3     1  UNL1        0.0174
     27 C         139.0804  151.0638  154.8627 C.3     1  UNL1        0.0029
     28 C         139.7859  150.3436  153.7521 C.3     1  UNL1        0.0174
     29 C         139.9320  148.8516  153.7996 C.3     1  UNL1        0.0721
@<TRIPOS>BOND
     1     1     2    2
     2     2     3   am
     3     3    20    1
     4    20    21    1
     5    21    22    1
     6    22    23    1
     7    23    24    1
     8    24    25    1
     9    25    26    1
    10    26    27    1
    11    27    28    1
    12    28    29    1
    13     2     4   am
    14     4     7    1
    15     7     8   ar
    16     8     9   ar
    17     9    10   ar
    18    10    13    1
    19    13    14   ar
    20    14    15   ar
    21    15    16   ar
    22    16    17    1
    23    16    18   ar
    24    18    19   ar
    25    10    11   ar
    26    11    12   ar
    27    29    24    1
    28    12     7   ar
    29    19    13   ar
    30     3     5    1
    31     4     6    1
@<TRIPOS>MOLECULE
*****
 29 31 0 0 0
SMALL
GASTEIGER

@<TRIPOS>ATOM
      1 O         142.1582  140.1397  160.5756 O.2     1  UNL1       -0.2525
      2 C         143.5191  139.5320  160.4061 C.2     1  UNL1        0.3045
      3 N         144.1149  139.3973  159.0361 N.am    1  UNL1       -0.2887
      4 N         144.2841  139.0592  161.6065 N.am    1  UNL1       -0.2670
      5 H         145.0082  138.9985  158.9248 H       1  UNL1        0.1510
      6 H         145.1773  138.6603  161.4953 H       1  UNL1        0.1565
      7 C         143.6883  139.1939  162.9764 C.ar    1  UNL1        0.0709
      8 C         142.6294  138.2339  163.4315 C.ar    1  UNL1        0.0178
      9 C         142.0335  138.3687  164.8015 C.ar    1  UNL1        0.0204
     10 C         142.4965  139.4635  165.7164 C.ar    1  UNL1        0.0814
     11 N         143.5555  140.4235  165.2613 N.ar    1  UNL1       -0.2425
     12 C         144.1513  140.2887  163.8914 C.ar    1  UNL1        0.1135
     13 C         141.9007  139.5983  167.0864 C.ar    1  UNL1        0.0178
     14 C         142.7429  139.3362  168.2996 C.ar    1  UNL1        0.0038
     15 C         142.1471  139.4710  169.6696 C.ar    1  UNL1        0.0297
     16 C         140.7091  139.8678  169.8263 C.ar    1  UNL1        0.1401
     17 F         140.1132  140.0026  171.1963 F       1  UNL1       -0.2042
     18 C         139.8669  140.1299  168.6130 C.ar    1  UNL1        0.0297
     19 C         140.4627  139.9951  167.2431 C.ar    1  UNL1        0.0038
     20 C         143.3499  139.8702  157.8357 C.3     1  UNL1        0.0910
     21 C         142.3986  138.9427  157.1395 C.3     1  UNL1        0.0227
     22 C         142.5548  137.4582  157.2878 C.3     1  UNL1        0.0191
     23 C         142.8395  136.6099  156.0839 C.3     1  UNL1        0.0721
     24 N         142.7269  135.1169  156.1748 N.3     1  UNL1       -0.2727
     25 C         143.6674  134.3459  157.0529 C.3     1  UNL1        0.0721
     26 C         143.5548  132.8529  157.1438 C.3     1  UNL1        0.0174
     27 C         142.5018  132.1309  156.3564 C.3     1  UNL1        0.0029
     28 C         141.5614  132.9019  155.4783 C.3     1  UNL1        0.0174
     29 C         141.6739  134.3948  155.3875 C.3     1  UNL1        0.0721
@<TRIPOS>BOND
     1     1     2    2
     2     2     3   am
     3     3    20    1
     4    20    21    1
     5    21    22    1
     6    22    23    1
     7    23    24    1
     8    24    25    1
     9    25    26    1
    10    26    27    1
    11    27    28    1
    12    28    29    1
    13     2     4   am
    14     4     7    1
    15     7     8   ar
    16     8     9   ar
    17     9    10   ar
    18    10    13    1
    19    13    14   ar
    20    14    15   ar
    21    15    16   ar
    22    16    17    1
    23    16    18   ar
    24    18    19   ar
    25    10    11   ar
    26    11    12   ar
    27    29    24    1
    28    12     7   ar
    29    19    13   ar
    30     3     5    1
    31     4     6    1
@<TRIPOS>MOLECULE
*****
 29 31 0 0 0
SMALL
GASTEIGER

@<TRIPOS>ATOM
      1 O         142.1714  139.5781  161.5180 O.2     1  UNL1       -0.2525
      2 C         142.2837  138.0877  161.6454 C.2     1  UNL1        0.3045
      3 N         142.6603  137.2592  160.4530 N.am    1  UNL1       -0.2887
      4 N         142.0194  137.4258  162.9653 N.am    1  UNL1       -0.2670
      5 H         142.7340  136.2811  160.5366 H       1  UNL1        0.1510
      6 H         142.0931  136.4477  163.0489 H       1  UNL1        0.1565
      7 C         141.6429  138.2543  164.1576 C.ar    1  UNL1        0.0709
      8 C         142.7073  138.9467  164.9561 C.ar    1  UNL1        0.0178
      9 C         142.3306  139.7752  166.1486 C.ar    1  UNL1        0.0204
     10 C         140.8897  139.9113  166.5424 C.ar    1  UNL1        0.0814
     11 N         139.8253  139.2188  165.7439 N.ar    1  UNL1       -0.2425
     12 C         140.2019  138.3903  164.5516 C.ar    1  UNL1        0.1135
     13 C         140.5131  140.7398  167.7349 C.ar    1  UNL1        0.0178
     14 C         141.0126  142.1489  167.8571 C.ar    1  UNL1        0.0038
     15 C         140.6361  142.9773  169.0494 C.ar    1  UNL1        0.0297
     16 C         139.7600  142.3968  170.1196 C.ar    1  UNL1        0.1401
     17 F         139.3833  143.2253  171.3120 F       1  UNL1       -0.2042
     18 C         139.2604  140.9877  169.9974 C.ar    1  UNL1        0.0297
     19 C         139.6370  140.1592  168.8050 C.ar    1  UNL1        0.0038
     20 C         142.9246  137.9211  159.1331 C.3     1  UNL1        0.0910
     21 C         141.8231  138.0453  158.1225 C.3     1  UNL1        0.0227
     22 C         141.9312  137.3374  156.8044 C.3     1  UNL1        0.0191
     23 C         143.1746  136.5702  156.4649 C.3     1  UNL1        0.0721
     24 N         143.0943  135.0996  156.1804 N.3     1  UNL1       -0.2727
     25 C         143.3056  134.1090  157.2867 C.3     1  UNL1        0.0721
     26 C         143.2253  132.6385  157.0022 C.3     1  UNL1        0.0174
     27 C         142.9338  132.1585  155.6113 C.3     1  UNL1        0.0029
     28 C         142.7224  133.1491  154.5049 C.3     1  UNL1        0.0174
     29 C         142.8027  134.6196  154.7895 C.3     1  UNL1        0.0721
@<TRIPOS>BOND
     1     1     2    2
     2     2     3   am
     3     3    20    1
     4    20    21    1
     5    21    22    1
     6    22    23    1
     7    23    24    1
     8    24    25    1
     9    25    26    1
    10    26    27    1
    11    27    28    1
    12    28    29    1
    13     2     4   am
    14     4     7    1
    15     7     8   ar
    16     8     9   ar
    17     9    10   ar
    18    10    13    1
    19    13    14   ar
    20    14    15   ar
    21    15    16   ar
    22    16    17    1
    23    16    18   ar
    24    18    19   ar
    25    10    11   ar
    26    11    12   ar
    27    29    24    1
    28    12     7   ar
    29    19    13   ar
    30     3     5    1
    31     4     6    1
@<TRIPOS>MOLECULE
*****
 29 31 0 0 0
SMALL
GASTEIGER

@<TRIPOS>ATOM
      1 O         140.3737  140.0092  160.8740 O.2     1  UNL1       -0.2525
      2 C         139.5428  138.7678  160.7384 C.2     1  UNL1        0.3045
      3 N         139.3476  138.1395  159.3903 N.am    1  UNL1       -0.2887
      4 N         138.9071  138.1546  161.9508 N.am    1  UNL1       -0.2670
      5 H         138.8022  137.3247  159.3013 H       1  UNL1        0.1510
      6 H         138.3617  137.3398  161.8617 H       1  UNL1        0.1565
      7 C         139.1023  138.7829  163.2987 C.ar    1  UNL1        0.0709
      8 C         140.1581  138.2570  164.2255 C.ar    1  UNL1        0.0178
      9 C         140.3533  138.8853  165.5736 C.ar    1  UNL1        0.0204
     10 C         139.4928  140.0395  165.9948 C.ar    1  UNL1        0.0814
     11 N         138.4371  140.5654  165.0680 N.ar    1  UNL1       -0.2425
     12 C         138.2418  139.9371  163.7200 C.ar    1  UNL1        0.1135
     13 C         139.6880  140.6678  167.3428 C.ar    1  UNL1        0.0178
     14 C         139.1866  139.9728  168.5739 C.ar    1  UNL1        0.0038
     15 C         139.3818  140.6011  169.9219 C.ar    1  UNL1        0.0297
     16 C         140.0783  141.9244  170.0388 C.ar    1  UNL1        0.1401
     17 F         140.2735  142.5527  171.3869 F       1  UNL1       -0.2042
     18 C         140.5797  142.6193  168.8077 C.ar    1  UNL1        0.0297
     19 C         140.3846  141.9911  167.4597 C.ar    1  UNL1        0.0038
     20 C         139.9833  138.7527  158.1780 C.3     1  UNL1        0.0910
     21 C         141.2351  138.1570  157.6052 C.3     1  UNL1        0.0227
     22 C         142.5611  138.4362  158.2487 C.3     1  UNL1        0.0191
     23 C         142.9183  137.7761  159.5473 C.3     1  UNL1        0.0721
     24 N         143.3710  138.6069  160.7114 N.3     1  UNL1       -0.2727
     25 C         143.9147  139.9860  160.4822 C.3     1  UNL1        0.0721
     26 C         144.3674  140.8167  161.6462 C.3     1  UNL1        0.0174
     27 C         144.2763  140.2683  163.0394 C.3     1  UNL1        0.0029
     28 C         143.7326  138.8893  163.2686 C.3     1  UNL1        0.0174
     29 C         143.2800  138.0586  162.1046 C.3     1  UNL1        0.0721
@<TRIPOS>BOND
     1     1     2    2
     2     2     3   am
     3     3    20    1
     4    20    21    1
     5    21    22    1
     6    22    23    1
     7    23    24    1
     8    24    25    1
     9    25    26    1
    10    26    27    1
    11    27    28    1
    12    28    29    1
    13     2     4   am
    14     4     7    1
    15     7     8   ar
    16     8     9   ar
    17     9    10   ar
    18    10    13    1
    19    13    14   ar
    20    14    15   ar
    21    15    16   ar
    22    16    17    1
    23    16    18   ar
    24    18    19   ar
    25    10    11   ar
    26    11    12   ar
    27    29    24    1
    28    12     7   ar
    29    19    13   ar
    30     3     5    1
    31     4     6    1
@<TRIPOS>MOLECULE
*****
 29 31 0 0 0
SMALL
GASTEIGER

@<TRIPOS>ATOM
      1 O         140.5385  140.4876  161.1506 O.2     1  UNL1       -0.2525
      2 C         139.4399  139.4959  160.9067 C.2     1  UNL1        0.3045
      3 N         138.9808  139.2144  159.5067 N.am    1  UNL1       -0.2887
      4 N         138.8003  138.7858  162.0628 N.am    1  UNL1       -0.2670
      5 H         138.2597  138.5635  159.3466 H       1  UNL1        0.1510
      6 H         138.0792  138.1349  161.9027 H       1  UNL1        0.1565
      7 C         139.2593  139.0674  163.4628 C.ar    1  UNL1        0.0709
      8 C         138.4657  139.9883  164.3414 C.ar    1  UNL1        0.0178
      9 C         138.9248  140.2699  165.7414 C.ar    1  UNL1        0.0204
     10 C         140.1776  139.6305  166.2627 C.ar    1  UNL1        0.0814
     11 N         140.9712  138.7095  165.3841 N.ar    1  UNL1       -0.2425
     12 C         140.5121  138.4279  163.9842 C.ar    1  UNL1        0.1135
     13 C         140.6367  139.9120  167.6628 C.ar    1  UNL1        0.0178
     14 C         139.6526  140.3742  168.6961 C.ar    1  UNL1        0.0038
     15 C         140.1116  140.6557  170.0961 C.ar    1  UNL1        0.0297
     16 C         141.5549  140.4751  170.4627 C.ar    1  UNL1        0.1401
     17 F         142.0140  140.7566  171.8627 F       1  UNL1       -0.2042
     18 C         142.5390  140.0129  169.4293 C.ar    1  UNL1        0.0297
     19 C         142.0799  139.7314  168.0294 C.ar    1  UNL1        0.0038
     20 C         139.6204  139.9245  158.3506 C.3     1  UNL1        0.0910
     21 C         138.9596  141.1313  157.7533 C.3     1  UNL1        0.0227
     22 C         138.4059  142.2022  158.6460 C.3     1  UNL1        0.0191
     23 C         139.3323  143.1721  159.3174 C.3     1  UNL1        0.0721
     24 N         139.0686  143.6068  160.7287 N.3     1  UNL1       -0.2727
     25 C         139.8327  144.7572  161.3142 C.3     1  UNL1        0.0721
     26 C         139.5690  145.1919  162.7254 C.3     1  UNL1        0.0174
     27 C         138.5413  144.4762  163.5510 C.3     1  UNL1        0.0029
     28 C         137.7773  143.3259  162.9655 C.3     1  UNL1        0.0174
     29 C         138.0409  142.8912  161.5543 C.3     1  UNL1        0.0721
@<TRIPOS>BOND
     1     1     2    2
     2     2     3   am
     3     3    20    1
     4    20    21    1
     5    21    22    1
     6    22    23    1
     7    23    24    1
     8    24    25    1
     9    25    26    1
    10    26    27    1
    11    27    28    1
    12    28    29    1
    13     2     4   am
    14     4     7    1
    15     7     8   ar
    16     8     9   ar
    17     9    10   ar
    18    10    13    1
    19    13    14   ar
    20    14    15   ar
    21    15    16   ar
    22    16    17    1
    23    16    18   ar
    24    18    19   ar
    25    10    11   ar
    26    11    12   ar
    27    29    24    1
    28    12     7   ar
    29    19    13   ar
    30     3     5    1
    31     4     6    1
@<TRIPOS>MOLECULE
*****
 29 31 0 0 0
SMALL
GASTEIGER

@<TRIPOS>ATOM
      1 O         142.6141  140.8140  161.1948 O.2     1  UNL1       -0.2525
      2 C         143.8059  139.9101  161.0821 C.2     1  UNL1        0.3045
      3 N         144.3286  139.5232  159.7303 N.am    1  UNL1       -0.2887
      4 N         144.4749  139.3931  162.3210 N.am    1  UNL1       -0.2670
      5 H         145.1108  138.9300  159.6563 H       1  UNL1        0.1510
      6 H         145.2571  138.7998  162.2470 H       1  UNL1        0.1565
      7 C         143.9522  139.7799  163.6727 C.ar    1  UNL1        0.0709
      8 C         143.2614  138.7608  164.5295 C.ar    1  UNL1        0.0178
      9 C         142.7386  139.1477  165.8813 C.ar    1  UNL1        0.0204
     10 C         142.9067  140.5537  166.3761 C.ar    1  UNL1        0.0814
     11 N         143.5974  141.5728  165.5192 N.ar    1  UNL1       -0.2425
     12 C         144.1202  141.1860  164.1676 C.ar    1  UNL1        0.1135
     13 C         142.3839  140.9406  167.7278 C.ar    1  UNL1        0.0178
     14 C         142.8640  142.2005  168.3851 C.ar    1  UNL1        0.0038
     15 C         142.3413  142.5875  169.7368 C.ar    1  UNL1        0.0297
     16 C         141.3385  141.7145  170.4311 C.ar    1  UNL1        0.1401
     17 F         140.8157  142.1014  171.7828 F       1  UNL1       -0.2042
     18 C         140.8584  140.4546  169.7738 C.ar    1  UNL1        0.0297
     19 C         141.3811  140.0676  168.4221 C.ar    1  UNL1        0.0038
     20 C         143.6596  140.0403  158.4914 C.3     1  UNL1        0.0910
     21 C         142.6036  139.2202  157.8114 C.3     1  UNL1        0.0227
     22 C         141.6924  138.3482  158.6235 C.3     1  UNL1        0.0191
     23 C         140.3436  138.8554  159.0400 C.3     1  UNL1        0.0721
     24 N         139.8320  138.5778  160.4225 N.3     1  UNL1       -0.2727
     25 C         140.7235  137.9209  161.4343 C.3     1  UNL1        0.0721
     26 C         140.2118  137.6433  162.8167 C.3     1  UNL1        0.0174
     27 C         138.8087  138.0227  163.1873 C.3     1  UNL1        0.0029
     28 C         137.9173  138.6796  162.1756 C.3     1  UNL1        0.0174
     29 C         138.4289  138.9572  160.7932 C.3     1  UNL1        0.0721
@<TRIPOS>BOND
     1     1     2    2
     2     2     3   am
     3     3    20    1
     4    20    21    1
     5    21    22    1
     6    22    23    1
     7    23    24    1
     8    24    25    1
     9    25    26    1
    10    26    27    1
    11    27    28    1
    12    28    29    1
    13     2     4   am
    14     4     7    1
    15     7     8   ar
    16     8     9   ar
    17     9    10   ar
    18    10    13    1
    19    13    14   ar
    20    14    15   ar
    21    15    16   ar
    22    16    17    1
    23    16    18   ar
    24    18    19   ar
    25    10    11   ar
    26    11    12   ar
    27    29    24    1
    28    12     7   ar
    29    19    13   ar
    30     3     5    1
    31     4     6    1
