@<TRIPOS>MOLECULE
*****
 31 34 0 0 0
SMALL
GASTEIGER

@<TRIPOS>ATOM
      1 N         140.9742  144.4888  162.1279 N.am    1  UNL1       -0.1663
      2 C         141.2152  143.0745  162.5656 C.2     1  UNL1        0.3232
      3 O         141.5523  142.0224  161.5510 O.2     1  UNL1       -0.2509
      4 N         141.1193  142.7123  164.0181 N.am    1  UNL1       -0.2677
      5 H         140.7530  145.1793  162.7938 H       1  UNL1        0.1782
      6 H         140.8981  143.4028  164.6840 H       1  UNL1        0.1564
      7 C         141.3604  141.2979  164.4558 C.ar    1  UNL1        0.0430
      8 C         142.7520  140.7381  164.4506 C.ar    1  UNL1       -0.0129
      9 C         142.9932  139.3238  164.8882 C.ar    1  UNL1       -0.0253
     10 C         141.8427  138.4693  165.3311 C.ar    1  UNL1       -0.0091
     11 C         140.4511  139.0290  165.3364 C.ar    1  UNL1       -0.0253
     12 C         140.2099  140.4433  164.8987 C.ar    1  UNL1       -0.0129
     13 C         138.7396  140.7186  165.0095 C.3     1  UNL1        0.0276
     14 C         138.0720  139.4743  165.5156 C.3     1  UNL1        0.0094
     15 C         139.1298  138.4301  165.7177 C.3     1  UNL1        0.0264
     16 C         144.4635  139.0486  164.7774 C.3     1  UNL1        0.0264
     17 C         145.1312  140.2929  164.2712 C.3     1  UNL1        0.0094
     18 C         144.0734  141.3370  164.0692 C.3     1  UNL1        0.0276
     19 S         141.0701  144.8510  160.6754 S.O2    1  UNL1        0.1094
     20 O         142.5609  144.6961  160.7353 O.2     1  UNL1       -0.1468
     21 O         139.5794  145.0059  160.6155 O.2     1  UNL1       -0.1468
     22 C         140.5687  145.8519  156.9590 C.ar    1  UNL1        0.0438
     23 C         142.0588  145.6894  157.0169 C.ar    1  UNL1        0.1793
     24 O         142.4280  145.2946  158.4162 O.2     1  UNL1       -0.4325
     25 C         141.1661  145.2132  159.2230 C.ar    1  UNL1        0.2702
     26 C         140.0170  145.5577  158.3224 C.ar    1  UNL1        0.0598
     27 C         139.1372  147.3565  156.5267 C.3     1  UNL1        0.0340
     28 C         139.7706  146.2406  155.7499 C.3     1  UNL1        0.1102
     29 C         140.4040  145.1246  154.9731 C.3     1  UNL1        0.0340
     30 O         138.9725  146.6291  154.5407 O.3     1  UNL1       -0.3826
     31 H         138.4143  147.3933  154.7537 H       1  UNL1        0.2107
@<TRIPOS>BOND
     1    27    28    1
     2    28    29    1
     3    28    30    1
     4    28    22    1
     5    22    23   ar
     6    23    24   ar
     7    24    25   ar
     8    25    19    1
     9    19    20    2
    10    19    21    2
    11    19     1    1
    12     1     2   am
    13     2     3    2
    14     2     4   am
    15     4     7    1
    16     7     8   ar
    17     8     9   ar
    18     9    10   ar
    19    10    11   ar
    20    11    12   ar
    21    12    13    1
    22    13    14    1
    23    14    15    1
    24     9    16    1
    25    16    17    1
    26    17    18    1
    27    25    26   ar
    28    26    22   ar
    29    12     7   ar
    30    18     8    1
    31    15    11    1
    32    30    31    1
    33     1     5    1
    34     4     6    1
@<TRIPOS>MOLECULE
*****
 31 34 0 0 0
SMALL
GASTEIGER

@<TRIPOS>ATOM
      1 N         141.0329  144.5080  162.1812 N.am    1  UNL1       -0.1663
      2 C         141.2457  143.0868  162.6113 C.2     1  UNL1        0.3232
      3 O         141.5032  142.0233  161.5853 O.2     1  UNL1       -0.2509
      4 N         141.2009  142.7291  164.0673 N.am    1  UNL1       -0.2677
      5 H         140.8639  145.2060  162.8546 H       1  UNL1        0.1782
      6 H         141.0319  143.4271  164.7407 H       1  UNL1        0.1564
      7 C         141.4137  141.3079  164.4973 C.ar    1  UNL1        0.0430
      8 C         140.2477  140.4772  164.9452 C.ar    1  UNL1       -0.0129
      9 C         140.4603  139.0561  165.3751 C.ar    1  UNL1       -0.0253
     10 C         141.8390  138.4654  165.3573 C.ar    1  UNL1       -0.0091
     11 C         143.0050  139.2960  164.9095 C.ar    1  UNL1       -0.0253
     12 C         142.7924  140.7172  164.4795 C.ar    1  UNL1       -0.0129
     13 C         144.1239  141.2882  164.0910 C.3     1  UNL1        0.0276
     14 C         145.1595  140.2198  164.2808 C.3     1  UNL1        0.0094
     15 C         144.4681  138.9886  164.7867 C.3     1  UNL1        0.0264
     16 C         139.1288  138.4851  165.7637 C.3     1  UNL1        0.0264
     17 C         138.0931  139.5535  165.5738 C.3     1  UNL1        0.0094
     18 C         138.7846  140.7846  165.0680 C.3     1  UNL1        0.0276
     19 S         141.0777  144.8657  160.7252 S.O2    1  UNL1        0.1094
     20 O         139.5883  145.0435  160.7231 O.2     1  UNL1       -0.1468
     21 O         142.5671  144.6879  160.7273 O.2     1  UNL1       -0.1468
     22 C         140.4514  145.6616  156.9783 C.ar    1  UNL1        0.0438
     23 C         141.9311  145.8860  157.0789 C.ar    1  UNL1        0.1793
     24 O         142.3459  145.6152  158.4948 O.2     1  UNL1       -0.4325
     25 C         141.1224  145.2234  159.2692 C.ar    1  UNL1        0.2702
     26 C         139.9516  145.2521  158.3319 C.ar    1  UNL1        0.0598
     27 C         139.1963  147.1839  156.1990 C.3     1  UNL1        0.0340
     28 C         139.6179  145.8191  155.7412 C.3     1  UNL1        0.1102
     29 C         140.0396  144.4544  155.2833 C.3     1  UNL1        0.0340
     30 O         138.7845  145.9765  154.5040 O.3     1  UNL1       -0.3826
     31 H         138.3477  146.8425  154.5164 H       1  UNL1        0.2107
@<TRIPOS>BOND
     1    27    28    1
     2    28    29    1
     3    28    30    1
     4    28    22    1
     5    22    23   ar
     6    23    24   ar
     7    24    25   ar
     8    25    19    1
     9    19    20    2
    10    19    21    2
    11    19     1    1
    12     1     2   am
    13     2     3    2
    14     2     4   am
    15     4     7    1
    16     7     8   ar
    17     8     9   ar
    18     9    10   ar
    19    10    11   ar
    20    11    12   ar
    21    12    13    1
    22    13    14    1
    23    14    15    1
    24     9    16    1
    25    16    17    1
    26    17    18    1
    27    25    26   ar
    28    26    22   ar
    29    12     7   ar
    30    18     8    1
    31    15    11    1
    32    30    31    1
    33     1     5    1
    34     4     6    1
@<TRIPOS>MOLECULE
*****
 31 34 0 0 0
SMALL
GASTEIGER

@<TRIPOS>ATOM
      1 N         144.2749  138.8007  160.4305 N.am    1  UNL1       -0.1663
      2 C         143.7376  139.6340  161.5561 C.2     1  UNL1        0.3232
      3 O         142.2781  139.9765  161.6054 O.2     1  UNL1       -0.2509
      4 N         144.6599  140.1248  162.6324 N.am    1  UNL1       -0.2677
      5 H         145.2328  138.5759  160.3981 H       1  UNL1        0.1782
      6 H         145.6179  139.9000  162.6001 H       1  UNL1        0.1564
      7 C         144.1226  140.9581  163.7580 C.ar    1  UNL1        0.0430
      8 C         144.0427  142.4492  163.6155 C.ar    1  UNL1       -0.0129
      9 C         143.5054  143.2825  164.7410 C.ar    1  UNL1       -0.0253
     10 C         143.0479  142.6248  166.0091 C.ar    1  UNL1       -0.0091
     11 C         143.1277  141.1337  166.1516 C.ar    1  UNL1       -0.0253
     12 C         143.6651  140.3004  165.0261 C.ar    1  UNL1       -0.0129
     13 C         143.6237  138.8629  165.4528 C.3     1  UNL1        0.0276
     14 C         143.0609  138.8079  166.8421 C.3     1  UNL1        0.0094
     15 C         142.7543  140.2113  167.2740 C.3     1  UNL1        0.0264
     16 C         143.5467  144.7199  164.3142 C.3     1  UNL1        0.0264
     17 C         144.1096  144.7750  162.9249 C.3     1  UNL1        0.0094
     18 C         144.4161  143.3716  162.4931 C.3     1  UNL1        0.0276
     19 S         143.3526  138.3099  159.3541 S.O2    1  UNL1        0.1094
     20 O         143.0035  137.1188  160.1964 O.2     1  UNL1       -0.1468
     21 O         143.7017  139.5010  158.5119 O.2     1  UNL1       -0.1468
     22 C         141.5085  136.5337  156.4370 C.ar    1  UNL1        0.0438
     23 C         140.5136  137.5939  156.8060 C.ar    1  UNL1        0.1793
     24 O         141.0833  138.3883  157.9438 O.2     1  UNL1       -0.4325
     25 C         142.4303  137.8191  158.2778 C.ar    1  UNL1        0.2702
     26 C         142.6931  136.6729  157.3465 C.ar    1  UNL1        0.0598
     27 C         142.3667  134.6397  156.0175 C.3     1  UNL1        0.0340
     28 C         141.3471  135.5136  155.3492 C.3     1  UNL1        0.1102
     29 C         140.3274  136.3874  154.6809 C.3     1  UNL1        0.0340
     30 O         141.1856  134.4935  154.2615 O.3     1  UNL1       -0.3826
     31 H         141.7725  133.7407  154.4344 H       1  UNL1        0.2107
@<TRIPOS>BOND
     1    27    28    1
     2    28    29    1
     3    28    30    1
     4    28    22    1
     5    22    23   ar
     6    23    24   ar
     7    24    25   ar
     8    25    19    1
     9    19    20    2
    10    19    21    2
    11    19     1    1
    12     1     2   am
    13     2     3    2
    14     2     4   am
    15     4     7    1
    16     7     8   ar
    17     8     9   ar
    18     9    10   ar
    19    10    11   ar
    20    11    12   ar
    21    12    13    1
    22    13    14    1
    23    14    15    1
    24     9    16    1
    25    16    17    1
    26    17    18    1
    27    25    26   ar
    28    26    22   ar
    29    12     7   ar
    30    18     8    1
    31    15    11    1
    32    30    31    1
    33     1     5    1
    34     4     6    1
@<TRIPOS>MOLECULE
*****
 31 34 0 0 0
SMALL
GASTEIGER

@<TRIPOS>ATOM
      1 N         141.9816  143.9055  163.1562 N.am    1  UNL1       -0.1663
      2 C         141.7626  142.7909  164.1358 C.2     1  UNL1        0.3232
      3 O         142.0267  141.3716  163.7283 O.2     1  UNL1       -0.2509
      4 N         141.2795  143.0954  165.5228 N.am    1  UNL1       -0.2677
      5 H         141.8082  144.8370  163.4236 H       1  UNL1        0.1782
      6 H         141.1061  144.0269  165.7902 H       1  UNL1        0.1564
      7 C         141.0606  141.9807  166.5023 C.ar    1  UNL1        0.0430
      8 C         141.9718  141.8313  167.6845 C.ar    1  UNL1       -0.0129
      9 C         141.7529  140.7166  168.6640 C.ar    1  UNL1       -0.0253
     10 C         140.6229  139.7513  168.4615 C.ar    1  UNL1       -0.0091
     11 C         139.7117  139.9006  167.2794 C.ar    1  UNL1       -0.0253
     12 C         139.9305  141.0153  166.2998 C.ar    1  UNL1       -0.0129
     13 C         138.8773  140.9118  165.2368 C.3     1  UNL1        0.0276
     14 C         138.0075  139.7331  165.5594 C.3     1  UNL1        0.0094
     15 C         138.5232  139.1081  166.8218 C.3     1  UNL1        0.0264
     16 C         142.8062  140.8202  169.7270 C.3     1  UNL1        0.0264
     17 C         143.6760  141.9989  169.4044 C.3     1  UNL1        0.0094
     18 C         143.1603  142.6238  168.1421 C.3     1  UNL1        0.0276
     19 S         142.4647  143.6010  161.7691 S.O2    1  UNL1        0.1094
     20 O         141.0945  143.1160  161.3984 O.2     1  UNL1       -0.1468
     21 O         143.8348  144.0859  162.1399 O.2     1  UNL1       -0.1468
     22 C         143.9942  142.1874  158.4939 C.ar    1  UNL1        0.0438
     23 C         143.3881  143.4681  158.0015 C.ar    1  UNL1        0.1793
     24 O         142.7413  144.1535  159.1686 O.2     1  UNL1       -0.4325
     25 C         142.9477  143.2964  160.3821 C.ar    1  UNL1        0.2702
     26 C         143.7221  142.0812  159.9651 C.ar    1  UNL1        0.0598
     27 C         145.7476  142.2407  157.3011 C.3     1  UNL1        0.0340
     28 C         144.7413  141.1882  157.6611 C.3     1  UNL1        0.1102
     29 C         143.7350  140.1357  158.0211 C.3     1  UNL1        0.0340
     30 O         145.4883  140.1890  156.8283 O.3     1  UNL1       -0.3826
     31 H         146.2629  140.6153  156.4293 H       1  UNL1        0.2107
@<TRIPOS>BOND
     1    27    28    1
     2    28    29    1
     3    28    30    1
     4    28    22    1
     5    22    23   ar
     6    23    24   ar
     7    24    25   ar
     8    25    19    1
     9    19    20    2
    10    19    21    2
    11    19     1    1
    12     1     2   am
    13     2     3    2
    14     2     4   am
    15     4     7    1
    16     7     8   ar
    17     8     9   ar
    18     9    10   ar
    19    10    11   ar
    20    11    12   ar
    21    12    13    1
    22    13    14    1
    23    14    15    1
    24     9    16    1
    25    16    17    1
    26    17    18    1
    27    25    26   ar
    28    26    22   ar
    29    12     7   ar
    30    18     8    1
    31    15    11    1
    32    30    31    1
    33     1     5    1
    34     4     6    1
@<TRIPOS>MOLECULE
*****
 31 34 0 0 0
SMALL
GASTEIGER

@<TRIPOS>ATOM
      1 N         144.2958  138.7696  160.5703 N.am    1  UNL1       -0.1663
      2 C         143.7601  139.6370  161.6706 C.2     1  UNL1        0.3232
      3 O         142.3255  140.0747  161.6496 O.2     1  UNL1       -0.2509
      4 N         144.6589  140.0668  162.7919 N.am    1  UNL1       -0.2677
      5 H         145.2373  138.4824  160.5841 H       1  UNL1        0.1782
      6 H         145.6005  139.7796  162.8057 H       1  UNL1        0.1564
      7 C         144.1231  140.9342  163.8922 C.ar    1  UNL1        0.0430
      8 C         143.6515  140.3140  165.1740 C.ar    1  UNL1       -0.0129
      9 C         143.1157  141.1813  166.2742 C.ar    1  UNL1       -0.0253
     10 C         143.0515  142.6689  166.0928 C.ar    1  UNL1       -0.0091
     11 C         143.5230  143.2891  164.8110 C.ar    1  UNL1       -0.0253
     12 C         144.0589  142.4218  163.7107 C.ar    1  UNL1       -0.0129
     13 C         144.4481  143.3111  162.5673 C.3     1  UNL1        0.0276
     14 C         144.1528  144.7281  162.9609 C.3     1  UNL1        0.0094
     15 C         143.5811  144.7145  164.3476 C.3     1  UNL1        0.0264
     16 C         142.7265  140.2919  167.4177 C.3     1  UNL1        0.0264
     17 C         143.0218  138.8748  167.0241 C.3     1  UNL1        0.0094
     18 C         143.5934  138.8886  165.6375 C.3     1  UNL1        0.0276
     19 S         143.3969  138.3399  159.4490 S.O2    1  UNL1        0.1094
     20 O         142.9414  137.1659  160.2641 O.2     1  UNL1       -0.1468
     21 O         143.8525  139.5138  158.6339 O.2     1  UNL1       -0.1468
     22 C         140.6363  137.7999  156.7745 C.ar    1  UNL1        0.0438
     23 C         141.5934  136.6977  156.4297 C.ar    1  UNL1        0.1793
     24 O         142.7441  136.7658  157.3897 O.2     1  UNL1       -0.4325
     25 C         142.4981  137.9101  158.3277 C.ar    1  UNL1        0.2702
     26 C         141.1954  138.5493  157.9475 C.ar    1  UNL1        0.0598
     27 C         139.4232  136.7777  155.3663 C.3     1  UNL1        0.0340
     28 C         139.3466  138.1001  156.0700 C.3     1  UNL1        0.1102
     29 C         139.2699  139.4226  156.7737 C.3     1  UNL1        0.0340
     30 O         138.0568  138.4004  155.3655 O.3     1  UNL1       -0.3826
     31 H         137.8255  137.6588  154.7846 H       1  UNL1        0.2107
@<TRIPOS>BOND
     1    27    28    1
     2    28    29    1
     3    28    30    1
     4    28    22    1
     5    22    23   ar
     6    23    24   ar
     7    24    25   ar
     8    25    19    1
     9    19    20    2
    10    19    21    2
    11    19     1    1
    12     1     2   am
    13     2     3    2
    14     2     4   am
    15     4     7    1
    16     7     8   ar
    17     8     9   ar
    18     9    10   ar
    19    10    11   ar
    20    11    12   ar
    21    12    13    1
    22    13    14    1
    23    14    15    1
    24     9    16    1
    25    16    17    1
    26    17    18    1
    27    25    26   ar
    28    26    22   ar
    29    12     7   ar
    30    18     8    1
    31    15    11    1
    32    30    31    1
    33     1     5    1
    34     4     6    1
@<TRIPOS>MOLECULE
*****
 31 34 0 0 0
SMALL
GASTEIGER

@<TRIPOS>ATOM
      1 N         143.4338  141.2844  163.1020 N.am    1  UNL1       -0.1663
      2 C         142.3983  141.2883  164.1872 C.2     1  UNL1        0.3232
      3 O         141.1273  142.0646  164.0084 O.2     1  UNL1       -0.2509
      4 N         142.6337  140.5158  165.4513 N.am    1  UNL1       -0.2677
      5 H         144.2679  140.7749  163.2193 H       1  UNL1        0.1782
      6 H         143.4679  140.0063  165.5687 H       1  UNL1        0.1564
      7 C         141.5982  140.5197  166.5365 C.ar    1  UNL1        0.0430
      8 C         141.8235  141.3196  167.7854 C.ar    1  UNL1       -0.0129
      9 C         140.7881  141.3236  168.8705 C.ar    1  UNL1       -0.0253
     10 C         139.5272  140.5277  168.7070 C.ar    1  UNL1       -0.0091
     11 C         139.3018  139.7278  167.4583 C.ar    1  UNL1       -0.0253
     12 C         140.3373  139.7239  166.3730 C.ar    1  UNL1       -0.0129
     13 C         139.8412  138.8464  165.2621 C.3     1  UNL1        0.0276
     14 C         138.4992  138.3081  165.6609 C.3     1  UNL1        0.0094
     15 C         138.1658  138.8528  167.0181 C.3     1  UNL1        0.0264
     16 C         141.2842  142.2010  169.9814 C.3     1  UNL1        0.0264
     17 C         142.6264  142.7394  169.5827 C.3     1  UNL1        0.0094
     18 C         142.9596  142.1946  168.2255 C.3     1  UNL1        0.0276
     19 S         143.1983  142.0569  161.8379 S.O2    1  UNL1        0.1094
     20 O         142.5939  140.8383  161.2058 O.2     1  UNL1       -0.1468
     21 O         143.8026  143.2756  162.4701 O.2     1  UNL1       -0.1468
     22 C         142.0405  144.3906  158.9607 C.ar    1  UNL1        0.0438
     23 C         143.1604  143.6456  158.2967 C.ar    1  UNL1        0.1793
     24 O         143.7304  142.6806  159.2938 O.2     1  UNL1       -0.4325
     25 C         142.9628  142.8294  160.5739 C.ar    1  UNL1        0.2702
     26 C         141.9184  143.8862  160.3680 C.ar    1  UNL1        0.0598
     27 C         140.2407  145.3830  159.4860 C.3     1  UNL1        0.0340
     28 C         141.1918  145.4534  158.3282 C.3     1  UNL1        0.1102
     29 C         142.1428  145.5239  157.1704 C.3     1  UNL1        0.0340
     30 O         140.3431  146.5163  157.6957 O.3     1  UNL1       -0.3826
     31 H         139.5803  146.7025  158.2652 H       1  UNL1        0.2107
@<TRIPOS>BOND
     1    27    28    1
     2    28    29    1
     3    28    30    1
     4    28    22    1
     5    22    23   ar
     6    23    24   ar
     7    24    25   ar
     8    25    19    1
     9    19    20    2
    10    19    21    2
    11    19     1    1
    12     1     2   am
    13     2     3    2
    14     2     4   am
    15     4     7    1
    16     7     8   ar
    17     8     9   ar
    18     9    10   ar
    19    10    11   ar
    20    11    12   ar
    21    12    13    1
    22    13    14    1
    23    14    15    1
    24     9    16    1
    25    16    17    1
    26    17    18    1
    27    25    26   ar
    28    26    22   ar
    29    12     7   ar
    30    18     8    1
    31    15    11    1
    32    30    31    1
    33     1     5    1
    34     4     6    1
@<TRIPOS>MOLECULE
*****
 31 34 0 0 0
SMALL
GASTEIGER

@<TRIPOS>ATOM
      1 N         143.4258  141.2676  163.0085 N.am    1  UNL1       -0.1663
      2 C         142.3912  141.2623  164.0946 C.2     1  UNL1        0.3232
      3 O         141.1182  142.0367  163.9216 O.2     1  UNL1       -0.2509
      4 N         142.6296  140.4827  165.3537 N.am    1  UNL1       -0.2677
      5 H         144.2613  140.7593  163.1220 H       1  UNL1        0.1782
      6 H         143.4650  139.9744  165.4672 H       1  UNL1        0.1564
      7 C         141.5949  140.4774  166.4397 C.ar    1  UNL1        0.0430
      8 C         140.3392  139.6735  166.2755 C.ar    1  UNL1       -0.0129
      9 C         139.3046  139.6682  167.3614 C.ar    1  UNL1       -0.0253
     10 C         139.5255  140.4669  168.6117 C.ar    1  UNL1       -0.0091
     11 C         140.7811  141.2708  168.7760 C.ar    1  UNL1       -0.0253
     12 C         141.8158  141.2761  167.6900 C.ar    1  UNL1       -0.0129
     13 C         142.9464  142.1577  168.1311 C.3     1  UNL1        0.0276
     14 C         142.6104  142.6973  169.4898 C.3     1  UNL1        0.0094
     15 C         141.2722  142.1492  169.8884 C.3     1  UNL1        0.0264
     16 C         138.1740  138.7866  166.9203 C.3     1  UNL1        0.0264
     17 C         138.5100  138.2469  165.5616 C.3     1  UNL1        0.0094
     18 C         139.8481  138.7951  165.1631 C.3     1  UNL1        0.0276
     19 S         143.1874  142.0472  161.7494 S.O2    1  UNL1        0.1094
     20 O         142.5339  140.8475  161.1302 O.2     1  UNL1       -0.1468
     21 O         143.8409  143.2470  162.3686 O.2     1  UNL1       -0.1468
     22 C         142.0308  144.4055  158.8917 C.ar    1  UNL1        0.0438
     23 C         143.1337  143.6478  158.2138 C.ar    1  UNL1        0.1793
     24 O         143.7012  142.6721  159.2018 O.2     1  UNL1       -0.4325
     25 C         142.9490  142.8269  160.4903 C.ar    1  UNL1        0.2702
     26 C         141.9167  143.8981  160.2987 C.ar    1  UNL1        0.0598
     27 C         142.1568  145.5790  157.1291 C.3     1  UNL1        0.0340
     28 C         141.1898  145.4816  158.2715 C.3     1  UNL1        0.1102
     29 C         140.2227  145.3841  159.4140 C.3     1  UNL1        0.0340
     30 O         140.3486  146.5576  157.6514 O.3     1  UNL1       -0.3826
     31 H         140.7569  146.8490  156.8212 H       1  UNL1        0.2107
@<TRIPOS>BOND
     1    27    28    1
     2    28    29    1
     3    28    30    1
     4    28    22    1
     5    22    23   ar
     6    23    24   ar
     7    24    25   ar
     8    25    19    1
     9    19    20    2
    10    19    21    2
    11    19     1    1
    12     1     2   am
    13     2     3    2
    14     2     4   am
    15     4     7    1
    16     7     8   ar
    17     8     9   ar
    18     9    10   ar
    19    10    11   ar
    20    11    12   ar
    21    12    13    1
    22    13    14    1
    23    14    15    1
    24     9    16    1
    25    16    17    1
    26    17    18    1
    27    25    26   ar
    28    26    22   ar
    29    12     7   ar
    30    18     8    1
    31    15    11    1
    32    30    31    1
    33     1     5    1
    34     4     6    1
@<TRIPOS>MOLECULE
*****
 31 34 0 0 0
SMALL
GASTEIGER

@<TRIPOS>ATOM
      1 N         141.6430  145.7380  159.7904 N.am    1  UNL1       -0.1663
      2 C         141.6220  144.7401  160.9101 C.2     1  UNL1        0.3232
      3 O         140.7682  143.5114  160.8038 O.2     1  UNL1       -0.2509
      4 N         142.4548  144.9709  162.1362 N.am    1  UNL1       -0.2677
      5 H         142.2034  146.5444  159.8602 H       1  UNL1        0.1782
      6 H         143.0152  145.7773  162.2060 H       1  UNL1        0.1564
      7 C         142.4337  143.9729  163.2559 C.ar    1  UNL1        0.0430
      8 C         141.2752  143.9386  164.2082 C.ar    1  UNL1       -0.0129
      9 C         141.2541  142.9407  165.3279 C.ar    1  UNL1       -0.0253
     10 C         142.3914  141.9771  165.4953 C.ar    1  UNL1       -0.0091
     11 C         143.5498  142.0114  164.5430 C.ar    1  UNL1       -0.0253
     12 C         143.5710  143.0093  163.4233 C.ar    1  UNL1       -0.0129
     13 C         144.8380  142.8074  162.6463 C.3     1  UNL1        0.0276
     14 C         145.6000  141.6847  163.2858 C.3     1  UNL1        0.0094
     15 C         144.8038  141.1927  164.4580 C.3     1  UNL1        0.0264
     16 C         139.9870  143.1426  166.1049 C.3     1  UNL1        0.0264
     17 C         139.2250  144.2653  165.4653 C.3     1  UNL1        0.0094
     18 C         140.0212  144.7572  164.2932 C.3     1  UNL1        0.0276
     19 S         140.8103  145.5072  158.5643 S.O2    1  UNL1        0.1094
     20 O         142.0205  144.9996  157.8379 O.2     1  UNL1       -0.1468
     21 O         139.6001  146.0148  159.2908 O.2     1  UNL1       -0.1468
     22 C         138.6893  144.1850  155.5947 C.ar    1  UNL1        0.0438
     23 C         138.7027  145.6574  155.3085 C.ar    1  UNL1        0.1793
     24 O         139.4988  146.3319  156.3861 O.2     1  UNL1       -0.4325
     25 C         139.9775  145.2764  157.3383 C.ar    1  UNL1        0.2702
     26 C         139.4771  143.9495  156.8492 C.ar    1  UNL1        0.0598
     27 C         139.3401  142.6663  154.2644 C.3     1  UNL1        0.0340
     28 C         138.0077  143.1329  154.7711 C.3     1  UNL1        0.1102
     29 C         136.6752  143.5995  155.2778 C.3     1  UNL1        0.0340
     30 O         137.3260  142.0808  153.9475 O.3     1  UNL1       -0.3826
     31 H         137.9914  141.5695  153.4610 H       1  UNL1        0.2107
@<TRIPOS>BOND
     1    27    28    1
     2    28    29    1
     3    28    30    1
     4    28    22    1
     5    22    23   ar
     6    23    24   ar
     7    24    25   ar
     8    25    19    1
     9    19    20    2
    10    19    21    2
    11    19     1    1
    12     1     2   am
    13     2     3    2
    14     2     4   am
    15     4     7    1
    16     7     8   ar
    17     8     9   ar
    18     9    10   ar
    19    10    11   ar
    20    11    12   ar
    21    12    13    1
    22    13    14    1
    23    14    15    1
    24     9    16    1
    25    16    17    1
    26    17    18    1
    27    25    26   ar
    28    26    22   ar
    29    12     7   ar
    30    18     8    1
    31    15    11    1
    32    30    31    1
    33     1     5    1
    34     4     6    1
@<TRIPOS>MOLECULE
*****
 31 34 0 0 0
SMALL
GASTEIGER

@<TRIPOS>ATOM
      1 N         141.8885  145.5506  159.3797 N.am    1  UNL1       -0.1663
      2 C         141.8256  144.6317  160.5637 C.2     1  UNL1        0.3232
      3 O         141.2543  143.2530  160.4134 O.2     1  UNL1       -0.2509
      4 N         142.3338  145.0917  161.8979 N.am    1  UNL1       -0.2677
      5 H         142.2635  146.4556  159.4784 H       1  UNL1        0.1782
      6 H         142.7087  145.9966  161.9966 H       1  UNL1        0.1564
      7 C         142.2708  144.1727  163.0818 C.ar    1  UNL1        0.0430
      8 C         143.4029  143.2286  163.3596 C.ar    1  UNL1       -0.0129
      9 C         143.3399  142.3097  164.5434 C.ar    1  UNL1       -0.0253
     10 C         142.1449  142.3347  165.4495 C.ar    1  UNL1       -0.0091
     11 C         141.0127  143.2787  165.1718 C.ar    1  UNL1       -0.0253
     12 C         141.0757  144.1977  163.9880 C.ar    1  UNL1       -0.0129
     13 C         139.8173  145.0138  163.9672 C.3     1  UNL1        0.0276
     14 C         138.9766  144.5992  165.1382 C.3     1  UNL1        0.0094
     15 C         139.7154  143.5269  165.8828 C.3     1  UNL1        0.0264
     16 C         144.5983  141.4936  164.5641 C.3     1  UNL1        0.0264
     17 C         145.4391  141.9082  163.3931 C.3     1  UNL1        0.0094
     18 C         144.7002  142.9805  162.6487 C.3     1  UNL1        0.0276
     19 S         141.3803  145.0907  158.0455 S.O2    1  UNL1        0.1094
     20 O         142.7143  144.4713  157.7509 O.2     1  UNL1       -0.1468
     21 O         140.0463  145.7101  158.3402 O.2     1  UNL1       -0.1468
     22 C         139.4133  144.2033  154.8193 C.ar    1  UNL1        0.0438
     23 C         140.7667  143.6428  154.4970 C.ar    1  UNL1        0.1793
     24 O         141.6684  143.9070  155.6663 O.2     1  UNL1       -0.4325
     25 C         140.8721  144.6308  156.7113 C.ar    1  UNL1        0.2702
     26 C         139.4783  144.8139  156.1878 C.ar    1  UNL1        0.0598
     27 C         137.4607  145.0287  154.8990 C.3     1  UNL1        0.0340
     28 C         138.2066  144.1607  153.9293 C.3     1  UNL1        0.1102
     29 C         138.9524  143.2927  152.9597 C.3     1  UNL1        0.0340
     30 O         136.9999  144.1180  153.0393 O.3     1  UNL1       -0.3826
     31 H         136.2851  144.6380  153.4386 H       1  UNL1        0.2107
@<TRIPOS>BOND
     1    27    28    1
     2    28    29    1
     3    28    30    1
     4    28    22    1
     5    22    23   ar
     6    23    24   ar
     7    24    25   ar
     8    25    19    1
     9    19    20    2
    10    19    21    2
    11    19     1    1
    12     1     2   am
    13     2     3    2
    14     2     4   am
    15     4     7    1
    16     7     8   ar
    17     8     9   ar
    18     9    10   ar
    19    10    11   ar
    20    11    12   ar
    21    12    13    1
    22    13    14    1
    23    14    15    1
    24     9    16    1
    25    16    17    1
    26    17    18    1
    27    25    26   ar
    28    26    22   ar
    29    12     7   ar
    30    18     8    1
    31    15    11    1
    32    30    31    1
    33     1     5    1
    34     4     6    1
