@<TRIPOS>MOLECULE
*****
 23 25 0 0 0
SMALL
GASTEIGER

@<TRIPOS>ATOM
      1 C         142.5135  144.0062  164.4831 C.3     1  UNL1        0.1199
      2 O         143.5730  143.2883  165.2655 O.3     1  UNL1       -0.3839
      3 C         141.6930  144.9024  163.6036 C.3     1  UNL1        0.0555
      4 C         140.2644  144.4532  163.6880 C.ar    1  UNL1       -0.0228
      5 C         139.0123  144.9614  163.0369 C.ar    1  UNL1       -0.0045
      6 C         137.6978  144.2956  163.3174 C.ar    1  UNL1       -0.0003
      7 C         137.6353  143.1217  164.2491 C.ar    1  UNL1       -0.0003
      8 C         138.8874  142.6135  164.9002 C.ar    1  UNL1       -0.0037
      9 C         140.2019  143.2793  164.6197 C.ar    1  UNL1       -0.0137
     10 C         141.5920  143.0030  165.1111 C.3     1  UNL1        0.0999
     11 H         144.4342  143.7025  165.0993 H       1  UNL1        0.2104
     12 C         143.6566  144.8593  164.0187 C.3     1  UNL1        0.0973
     13 C         144.4843  143.5297  161.9457 C.3     1  UNL1        0.0859
     14 N         144.0800  144.8275  162.5800 N.3     1  UNL1       -0.2943
     15 H         143.2982  145.1907  162.0348 H       1  UNL1        0.1234
     16 S         141.9905  141.9147  166.0633 S.3     1  UNL1       -0.1080
     17 C         141.1440  141.6241  167.2669 C.ar    1  UNL1        0.0216
     18 C         141.1057  142.5956  168.4092 C.ar    1  UNL1        0.0058
     19 C         140.2592  142.3051  169.6129 C.ar    1  UNL1        0.0005
     20 C         139.4509  141.0429  169.6744 C.ar    1  UNL1       -0.0003
     21 C         139.4892  140.0714  168.5322 C.ar    1  UNL1       -0.0038
     22 C         140.3357  140.3620  167.3285 C.ar    1  UNL1       -0.0162
     23 C         140.3739  139.3904  166.1863 C.3     1  UNL1        0.0315
@<TRIPOS>BOND
     1    13    14    1
     2    14    12    1
     3    12     1    1
     4     1     2    1
     5     1     3    1
     6     3     4    1
     7     4     5   ar
     8     5     6   ar
     9     6     7   ar
    10     7     8   ar
    11     8     9   ar
    12     9    10    1
    13    10    16    1
    14    16    17    1
    15    17    18   ar
    16    18    19   ar
    17    19    20   ar
    18    20    21   ar
    19    21    22   ar
    20    22    23    1
    21    10     1    1
    22    22    17   ar
    23     9     4   ar
    24    14    15    1
    25     2    11    1
@<TRIPOS>MOLECULE
*****
 23 25 0 0 0
SMALL
GASTEIGER

@<TRIPOS>ATOM
      1 C         142.1397  143.5144  164.2125 C.3     1  UNL1        0.1199
      2 O         140.7990  144.0934  164.5549 O.3     1  UNL1       -0.3839
      3 C         143.5330  143.2171  163.7432 C.3     1  UNL1        0.0555
      4 C         143.8622  141.8063  164.1321 C.ar    1  UNL1       -0.0228
      5 C         145.0916  140.9707  163.9316 C.ar    1  UNL1       -0.0045
      6 C         145.1311  139.5604  164.4409 C.ar    1  UNL1       -0.0003
      7 C         143.9412  138.9857  165.1506 C.ar    1  UNL1       -0.0003
      8 C         142.7117  139.8213  165.3511 C.ar    1  UNL1       -0.0037
      9 C         142.6722  141.2316  164.8418 C.ar    1  UNL1       -0.0137
     10 C         141.6077  142.2872  164.8915 C.3     1  UNL1        0.0999
     11 H         140.7503  145.0076  164.2344 H       1  UNL1        0.2104
     12 C         142.3915  144.8626  163.6051 C.3     1  UNL1        0.0973
     13 C         141.4486  144.7702  161.1859 C.3     1  UNL1        0.0859
     14 N         142.5972  144.9917  162.1249 N.3     1  UNL1       -0.2943
     15 H         142.9368  145.9386  161.9563 H       1  UNL1        0.1234
     16 S         140.2496  142.1413  165.5114 S.3     1  UNL1       -0.1080
     17 C         140.1220  141.8116  166.9691 C.ar    1  UNL1        0.0216
     18 C         140.5188  142.8222  168.0042 C.ar    1  UNL1        0.0058
     19 C         140.3912  142.4925  169.4619 C.ar    1  UNL1        0.0005
     20 C         139.8667  141.1522  169.8846 C.ar    1  UNL1       -0.0003
     21 C         139.4699  140.1417  168.8496 C.ar    1  UNL1       -0.0038
     22 C         139.5976  140.4713  167.3918 C.ar    1  UNL1       -0.0162
     23 C         139.2008  139.4607  166.3568 C.3     1  UNL1        0.0315
@<TRIPOS>BOND
     1    13    14    1
     2    14    12    1
     3    12     1    1
     4     1     2    1
     5     1     3    1
     6     3     4    1
     7     4     5   ar
     8     5     6   ar
     9     6     7   ar
    10     7     8   ar
    11     8     9   ar
    12     9    10    1
    13    10    16    1
    14    16    17    1
    15    17    18   ar
    16    18    19   ar
    17    19    20   ar
    18    20    21   ar
    19    21    22   ar
    20    22    23    1
    21    10     1    1
    22    22    17   ar
    23     9     4   ar
    24    14    15    1
    25     2    11    1
@<TRIPOS>MOLECULE
*****
 23 25 0 0 0
SMALL
GASTEIGER

@<TRIPOS>ATOM
      1 C         141.6549  138.7819  164.9212 C.3     1  UNL1        0.1199
      2 O         140.3011  138.6174  165.5459 O.3     1  UNL1       -0.3839
      3 C         142.9716  138.6457  164.2158 C.3     1  UNL1        0.0555
      4 C         143.6797  139.9655  164.2970 C.ar    1  UNL1       -0.0228
      5 C         145.0114  140.4234  163.7806 C.ar    1  UNL1       -0.0045
      6 C         145.4641  141.8333  164.0198 C.ar    1  UNL1       -0.0003
      7 C         144.5850  142.7853  164.7754 C.ar    1  UNL1       -0.0003
      8 C         143.2533  142.3273  165.2919 C.ar    1  UNL1       -0.0037
      9 C         142.8007  140.9174  165.0527 C.ar    1  UNL1       -0.0137
     10 C         141.5493  140.1859  165.4385 C.3     1  UNL1        0.0999
     11 H         139.9872  137.7107  165.4034 H       1  UNL1        0.2104
     12 C         141.4775  137.3435  164.5346 C.3     1  UNL1        0.0973
     13 C         140.1298  137.6828  162.3394 C.3     1  UNL1        0.0859
     14 N         141.2112  136.9787  163.1042 N.3     1  UNL1       -0.2943
     15 H         142.0809  137.1332  162.5941 H       1  UNL1        0.1234
     16 S         140.3949  140.7580  166.2067 S.3     1  UNL1       -0.1080
     17 C         139.6158  141.9092  165.6431 C.ar    1  UNL1        0.0216
     18 C         139.9827  143.3158  166.0130 C.ar    1  UNL1        0.0058
     19 C         139.2036  144.4671  165.4495 C.ar    1  UNL1        0.0005
     20 C         138.0575  144.2117  164.5160 C.ar    1  UNL1       -0.0003
     21 C         137.6906  142.8051  164.1461 C.ar    1  UNL1       -0.0038
     22 C         138.4697  141.6539  164.7096 C.ar    1  UNL1       -0.0162
     23 C         138.1028  140.2473  164.3397 C.3     1  UNL1        0.0315
@<TRIPOS>BOND
     1    13    14    1
     2    14    12    1
     3    12     1    1
     4     1     2    1
     5     1     3    1
     6     3     4    1
     7     4     5   ar
     8     5     6   ar
     9     6     7   ar
    10     7     8   ar
    11     8     9   ar
    12     9    10    1
    13    10    16    1
    14    16    17    1
    15    17    18   ar
    16    18    19   ar
    17    19    20   ar
    18    20    21   ar
    19    21    22   ar
    20    22    23    1
    21    10     1    1
    22    22    17   ar
    23     9     4   ar
    24    14    15    1
    25     2    11    1
@<TRIPOS>MOLECULE
*****
 23 25 0 0 0
SMALL
GASTEIGER

@<TRIPOS>ATOM
      1 C         139.0532  142.0302  164.5369 C.3     1  UNL1        0.1199
      2 O         138.4435  140.7406  165.0009 O.3     1  UNL1       -0.3839
      3 C         139.3709  143.3861  163.9797 C.3     1  UNL1        0.0555
      4 C         140.8364  143.6371  164.1781 C.ar    1  UNL1       -0.0228
      5 C         141.7113  144.8039  163.8276 C.ar    1  UNL1       -0.0045
      6 C         143.1743  144.7698  164.1569 C.ar    1  UNL1       -0.0003
      7 C         143.7624  143.5689  164.8366 C.ar    1  UNL1       -0.0003
      8 C         142.8874  142.4021  165.1871 C.ar    1  UNL1       -0.0037
      9 C         141.4244  142.4362  164.8579 C.ar    1  UNL1       -0.0137
     10 C         140.3223  141.4431  165.0796 C.3     1  UNL1        0.0999
     11 H         137.4950  140.7399  164.7979 H       1  UNL1        0.2104
     12 C         137.6566  142.3477  164.0911 C.3     1  UNL1        0.0973
     13 C         137.5817  140.9941  161.8747 C.3     1  UNL1        0.0859
     14 N         136.9363  141.4170  163.1611 N.3     1  UNL1       -0.2943
     15 H         136.7437  140.5650  163.6878 H       1  UNL1        0.1234
     16 S         140.4645  140.0989  165.7299 S.3     1  UNL1       -0.1080
     17 C         140.8054  140.0031  167.1874 C.ar    1  UNL1        0.0216
     18 C         139.8100  140.4402  168.2209 C.ar    1  UNL1        0.0058
     19 C         140.1509  140.3445  169.6785 C.ar    1  UNL1        0.0005
     20 C         141.4873  139.8115  170.1027 C.ar    1  UNL1       -0.0003
     21 C         142.4828  139.3743  169.0693 C.ar    1  UNL1       -0.0038
     22 C         142.1418  139.4701  167.6117 C.ar    1  UNL1       -0.0162
     23 C         143.1373  139.0329  166.5783 C.3     1  UNL1        0.0315
@<TRIPOS>BOND
     1    13    14    1
     2    14    12    1
     3    12     1    1
     4     1     2    1
     5     1     3    1
     6     3     4    1
     7     4     5   ar
     8     5     6   ar
     9     6     7   ar
    10     7     8   ar
    11     8     9   ar
    12     9    10    1
    13    10    16    1
    14    16    17    1
    15    17    18   ar
    16    18    19   ar
    17    19    20   ar
    18    20    21   ar
    19    21    22   ar
    20    22    23    1
    21    10     1    1
    22    22    17   ar
    23     9     4   ar
    24    14    15    1
    25     2    11    1
@<TRIPOS>MOLECULE
*****
 23 25 0 0 0
SMALL
GASTEIGER

@<TRIPOS>ATOM
      1 C         139.2801  139.4094  164.3159 C.3     1  UNL1        0.1199
      2 O         140.1391  138.4326  165.0628 O.3     1  UNL1       -0.3839
      3 C         138.3348  140.1340  163.4041 C.3     1  UNL1        0.0555
      4 C         138.3432  141.5847  163.7856 C.ar    1  UNL1       -0.0228
      5 C         137.6081  142.7712  163.2362 C.ar    1  UNL1       -0.0045
      6 C         137.8235  144.1297  163.8345 C.ar    1  UNL1       -0.0003
      7 C         138.7739  144.3017  164.9821 C.ar    1  UNL1       -0.0003
      8 C         139.5090  143.1152  165.5315 C.ar    1  UNL1       -0.0037
      9 C         139.2936  141.7567  164.9332 C.ar    1  UNL1       -0.0137
     10 C         139.8727  140.4123  165.2610 C.3     1  UNL1        0.0999
     11 H         140.0160  137.5446  164.6924 H       1  UNL1        0.2104
     12 C         138.8671  138.2024  163.5270 C.3     1  UNL1        0.0973
     13 C         140.6309  138.0181  161.6283 C.3     1  UNL1        0.0859
     14 N         139.8966  137.4042  162.7832 N.3     1  UNL1       -0.2943
     15 H         140.6016  137.1246  163.4653 H       1  UNL1        0.1234
     16 S         140.8693  140.1219  166.3437 S.3     1  UNL1       -0.1080
     17 C         140.6542  140.6630  167.7260 C.ar    1  UNL1        0.0216
     18 C         139.4929  140.1848  168.5463 C.ar    1  UNL1        0.0058
     19 C         139.2777  140.7259  169.9287 C.ar    1  UNL1        0.0005
     20 C         140.2238  141.7452  170.4907 C.ar    1  UNL1       -0.0003
     21 C         141.3850  142.2234  169.6705 C.ar    1  UNL1       -0.0038
     22 C         141.6002  141.6823  168.2881 C.ar    1  UNL1       -0.0162
     23 C         142.7615  142.1606  167.4679 C.3     1  UNL1        0.0315
@<TRIPOS>BOND
     1    13    14    1
     2    14    12    1
     3    12     1    1
     4     1     2    1
     5     1     3    1
     6     3     4    1
     7     4     5   ar
     8     5     6   ar
     9     6     7   ar
    10     7     8   ar
    11     8     9   ar
    12     9    10    1
    13    10    16    1
    14    16    17    1
    15    17    18   ar
    16    18    19   ar
    17    19    20   ar
    18    20    21   ar
    19    21    22   ar
    20    22    23    1
    21    10     1    1
    22    22    17   ar
    23     9     4   ar
    24    14    15    1
    25     2    11    1
@<TRIPOS>MOLECULE
*****
 23 25 0 0 0
SMALL
GASTEIGER

@<TRIPOS>ATOM
      1 C         139.1753  143.3271  164.4150 C.3     1  UNL1        0.1199
      2 O         138.2512  142.2587  164.9195 O.3     1  UNL1       -0.3839
      3 C         139.8375  144.5194  163.7905 C.3     1  UNL1        0.0555
      4 C         141.3065  144.4404  164.0839 C.ar    1  UNL1       -0.0228
      5 C         142.4521  145.3382  163.7213 C.ar    1  UNL1       -0.0045
      6 C         143.8433  144.9949  164.1646 C.ar    1  UNL1       -0.0003
      7 C         144.0889  143.7538  164.9704 C.ar    1  UNL1       -0.0003
      8 C         142.9433  142.8560  165.3330 C.ar    1  UNL1       -0.0037
      9 C         141.5521  143.1993  164.8897 C.ar    1  UNL1       -0.0137
     10 C         140.2350  142.5113  165.0943 C.3     1  UNL1        0.0999
     11 H         137.3432  142.4601  164.6442 H       1  UNL1        0.2104
     12 C         137.9225  143.9196  163.8411 C.3     1  UNL1        0.0973
     13 C         137.9715  142.6824  161.5571 C.3     1  UNL1        0.0859
     14 N         137.7062  143.9234  162.3568 N.3     1  UNL1       -0.2943
     15 H         136.7285  144.1698  162.2024 H       1  UNL1        0.1234
     16 S         140.0160  141.2320  165.8463 S.3     1  UNL1       -0.1080
     17 C         141.1418  140.2538  166.0062 C.ar    1  UNL1        0.0216
     18 C         141.6147  139.4553  164.8277 C.ar    1  UNL1        0.0058
     19 C         142.7405  138.4771  164.9875 C.ar    1  UNL1        0.0005
     20 C         143.3936  138.2974  166.3259 C.ar    1  UNL1       -0.0003
     21 C         142.9207  139.0958  167.5044 C.ar    1  UNL1       -0.0038
     22 C         141.7949  140.0741  167.3445 C.ar    1  UNL1       -0.0162
     23 C         141.3221  140.8725  168.5231 C.3     1  UNL1        0.0315
@<TRIPOS>BOND
     1    13    14    1
     2    14    12    1
     3    12     1    1
     4     1     2    1
     5     1     3    1
     6     3     4    1
     7     4     5   ar
     8     5     6   ar
     9     6     7   ar
    10     7     8   ar
    11     8     9   ar
    12     9    10    1
    13    10    16    1
    14    16    17    1
    15    17    18   ar
    16    18    19   ar
    17    19    20   ar
    18    20    21   ar
    19    21    22   ar
    20    22    23    1
    21    10     1    1
    22    22    17   ar
    23     9     4   ar
    24    14    15    1
    25     2    11    1
@<TRIPOS>MOLECULE
*****
 23 25 0 0 0
SMALL
GASTEIGER

@<TRIPOS>ATOM
      1 C         142.8886  139.6215  164.7506 C.3     1  UNL1        0.1199
      2 O         142.5272  139.9174  163.3252 O.3     1  UNL1       -0.3839
      3 C         143.5246  139.2367  166.0535 C.3     1  UNL1        0.0555
      4 C         142.5285  139.4860  167.1470 C.ar    1  UNL1       -0.0228
      5 C         142.5995  139.2919  168.6326 C.ar    1  UNL1       -0.0045
      6 C         141.4189  139.6367  169.4913 C.ar    1  UNL1       -0.0003
      7 C         140.1674  140.1756  168.8642 C.ar    1  UNL1       -0.0003
      8 C         140.0964  140.3697  167.3786 C.ar    1  UNL1       -0.0037
      9 C         141.2770  140.0248  166.5199 C.ar    1  UNL1       -0.0137
     10 C         141.4995  140.1086  165.0389 C.3     1  UNL1        0.0999
     11 H         143.2777  139.7015  162.7498 H       1  UNL1        0.2104
     12 C         144.2022  139.1962  164.1643 C.3     1  UNL1        0.0973
     13 C         145.6765  141.3073  163.8183 C.3     1  UNL1        0.0859
     14 N         144.9515  140.1221  163.2527 N.3     1  UNL1       -0.2943
     15 H         145.6468  139.5568  162.7654 H       1  UNL1        0.1234
     16 S         140.5072  140.5942  164.0243 S.3     1  UNL1       -0.1080
     17 C         139.8301  141.9194  164.2119 C.ar    1  UNL1        0.0216
     18 C         140.6163  143.1013  164.6969 C.ar    1  UNL1        0.0058
     19 C         139.9394  144.4267  164.8845 C.ar    1  UNL1        0.0005
     20 C         138.4761  144.5701  164.5872 C.ar    1  UNL1       -0.0003
     21 C         137.6899  143.3883  164.1022 C.ar    1  UNL1       -0.0038
     22 C         138.3669  142.0630  163.9146 C.ar    1  UNL1       -0.0162
     23 C         137.5807  140.8812  163.4296 C.3     1  UNL1        0.0315
@<TRIPOS>BOND
     1    13    14    1
     2    14    12    1
     3    12     1    1
     4     1     2    1
     5     1     3    1
     6     3     4    1
     7     4     5   ar
     8     5     6   ar
     9     6     7   ar
    10     7     8   ar
    11     8     9   ar
    12     9    10    1
    13    10    16    1
    14    16    17    1
    15    17    18   ar
    16    18    19   ar
    17    19    20   ar
    18    20    21   ar
    19    21    22   ar
    20    22    23    1
    21    10     1    1
    22    22    17   ar
    23     9     4   ar
    24    14    15    1
    25     2    11    1
@<TRIPOS>MOLECULE
*****
 23 25 0 0 0
SMALL
GASTEIGER

@<TRIPOS>ATOM
      1 C         139.5879  139.6151  165.3421 C.3     1  UNL1        0.1199
      2 O         140.7132  138.7717  165.8640 O.3     1  UNL1       -0.3839
      3 C         138.3263  140.1821  164.7617 C.3     1  UNL1        0.0555
      4 C         138.4335  141.6780  164.7921 C.ar    1  UNL1       -0.0228
      5 C         137.4936  142.7608  164.3516 C.ar    1  UNL1       -0.0045
      6 C         137.8815  144.2010  164.5104 C.ar    1  UNL1       -0.0003
      7 C         139.2093  144.5584  165.1096 C.ar    1  UNL1       -0.0003
      8 C         140.1492  143.4756  165.5501 C.ar    1  UNL1       -0.0037
      9 C         139.7613  142.0354  165.3914 C.ar    1  UNL1       -0.0137
     10 C         140.4747  140.7605  165.7313 C.3     1  UNL1        0.0999
     11 H         140.4842  137.8337  165.7713 H       1  UNL1        0.2104
     12 C         138.9362  138.2934  165.0620 C.3     1  UNL1        0.0973
     13 C         140.0080  137.5972  162.8000 C.3     1  UNL1        0.0859
     14 N         138.7900  137.8138  163.6483 N.3     1  UNL1       -0.2943
     15 H         138.2974  136.9216  163.6894 H       1  UNL1        0.1234
     16 S         141.8361  140.6503  166.3514 S.3     1  UNL1       -0.1080
     17 C         143.0385  141.1654  165.6176 C.ar    1  UNL1        0.0216
     18 C         143.4095  142.6159  165.7104 C.ar    1  UNL1        0.0058
     19 C         144.6119  143.1311  164.9765 C.ar    1  UNL1        0.0005
     20 C         145.4436  142.1957  164.1497 C.ar    1  UNL1       -0.0003
     21 C         145.0727  140.7453  164.0569 C.ar    1  UNL1       -0.0038
     22 C         143.8702  140.2301  164.7908 C.ar    1  UNL1       -0.0162
     23 C         143.4994  138.7797  164.6978 C.3     1  UNL1        0.0315
@<TRIPOS>BOND
     1    13    14    1
     2    14    12    1
     3    12     1    1
     4     1     2    1
     5     1     3    1
     6     3     4    1
     7     4     5   ar
     8     5     6   ar
     9     6     7   ar
    10     7     8   ar
    11     8     9   ar
    12     9    10    1
    13    10    16    1
    14    16    17    1
    15    17    18   ar
    16    18    19   ar
    17    19    20   ar
    18    20    21   ar
    19    21    22   ar
    20    22    23    1
    21    10     1    1
    22    22    17   ar
    23     9     4   ar
    24    14    15    1
    25     2    11    1
@<TRIPOS>MOLECULE
*****
 23 25 0 0 0
SMALL
GASTEIGER

@<TRIPOS>ATOM
      1 C         139.3518  139.7391  164.8705 C.3     1  UNL1        0.1199
      2 O         139.3955  140.0018  163.3943 O.3     1  UNL1       -0.3839
      3 C         139.2104  139.1914  166.2597 C.3     1  UNL1        0.0555
      4 C         139.5997  140.2710  167.2256 C.ar    1  UNL1       -0.0228
      5 C         139.6557  140.3048  168.7241 C.ar    1  UNL1       -0.0045
      6 C         140.0937  141.5535  169.4303 C.ar    1  UNL1       -0.0003
      7 C         140.4758  142.7685  168.6379 C.ar    1  UNL1       -0.0003
      8 C         140.4198  142.7348  167.1394 C.ar    1  UNL1       -0.0037
      9 C         139.9818  141.4860  166.4332 C.ar    1  UNL1       -0.0137
     10 C         139.8286  141.1572  164.9777 C.3     1  UNL1        0.0999
     11 H         139.1154  139.2059  162.9158 H       1  UNL1        0.2104
     12 C         138.8842  138.3758  164.4547 C.3     1  UNL1        0.0973
     13 C         141.0397  137.0673  163.8290 C.3     1  UNL1        0.0859
     14 N         139.6790  137.5808  163.4617 N.3     1  UNL1       -0.2943
     15 H         139.1141  136.7679  163.2155 H       1  UNL1        0.1234
     16 S         140.1038  142.0840  163.8308 S.3     1  UNL1       -0.1080
     17 C         141.2702  143.0251  163.8902 C.ar    1  UNL1        0.0216
     18 C         142.6575  142.4889  164.0848 C.ar    1  UNL1        0.0058
     19 C         143.8240  143.4300  164.1442 C.ar    1  UNL1        0.0005
     20 C         143.6031  144.9076  164.0091 C.ar    1  UNL1       -0.0003
     21 C         142.2159  145.4438  163.8146 C.ar    1  UNL1       -0.0038
     22 C         141.0494  144.5026  163.7552 C.ar    1  UNL1       -0.0162
     23 C         139.6622  145.0390  163.5607 C.3     1  UNL1        0.0315
@<TRIPOS>BOND
     1    13    14    1
     2    14    12    1
     3    12     1    1
     4     1     2    1
     5     1     3    1
     6     3     4    1
     7     4     5   ar
     8     5     6   ar
     9     6     7   ar
    10     7     8   ar
    11     8     9   ar
    12     9    10    1
    13    10    16    1
    14    16    17    1
    15    17    18   ar
    16    18    19   ar
    17    19    20   ar
    18    20    21   ar
    19    21    22   ar
    20    22    23    1
    21    10     1    1
    22    22    17   ar
    23     9     4   ar
    24    14    15    1
    25     2    11    1
