@<TRIPOS>MOLECULE
*****
 36 39 0 0 0
SMALL
GASTEIGER

@<TRIPOS>ATOM
      1 C         140.9687  144.0617  161.1000 C.ar    1  UNL1        0.0199
      2 C         140.7832  145.0694  162.1955 C.ar    1  UNL1        0.0017
      3 C         140.9175  144.6512  163.6297 C.ar    1  UNL1        0.0046
      4 C         141.2372  143.2254  163.9685 C.ar    1  UNL1        0.0537
      5 C         141.4228  142.2177  162.8730 C.ar    1  UNL1        0.0046
      6 C         141.2885  142.6359  161.4388 C.ar    1  UNL1        0.0017
      7 C         140.5659  145.3160  156.7971 C.ar    1  UNL1        0.0153
      8 C         141.6815  145.8642  157.6369 C.ar    1  UNL1        0.0960
      9 N         141.8157  145.4461  159.0712 N.ar    1  UNL1       -0.2419
     10 C         140.8344  144.4798  159.6657 C.ar    1  UNL1        0.1086
     11 C         139.7190  143.9316  158.8260 C.ar    1  UNL1        0.1574
     12 F         138.7377  142.9654  159.4205 F       1  UNL1       -0.2026
     13 C         139.5847  144.3497  157.3916 C.ar    1  UNL1        0.0298
     14 C         140.4317  145.7341  155.3629 C.3     1  UNL1        0.1008
     15 N         139.3090  149.9726  154.3504 N.3     1  UNL1       -0.2716
     16 C         138.7828  149.3360  155.6025 C.3     1  UNL1        0.0896
     17 C         139.1571  147.9232  155.9400 C.3     1  UNL1        0.0899
     18 N         140.0575  147.1469  155.0254 N.3     1  UNL1       -0.2665
     19 C         140.5836  147.7835  153.7732 C.3     1  UNL1        0.0899
     20 C         140.2094  149.1963  153.4357 C.3     1  UNL1        0.0896
     21 C         138.4395  152.3072  155.0876 C.3     1  UNL1        0.0173
     22 C         138.9347  151.3854  154.0129 C.3     1  UNL1        0.0577
     23 C         139.0557  151.8764  152.6007 C.3     1  UNL1        0.0173
     24 C         141.3715  142.8073  165.4028 C.2     1  UNL1        0.2495
     25 O         140.2949  143.1526  166.3886 O.2     1  UNL1       -0.2698
     26 N         142.5823  142.0440  165.8513 N.am    1  UNL1       -0.2794
     27 H         143.2889  141.8173  165.2043 H       1  UNL1        0.1552
     28 C         142.7165  141.6259  167.2856 C.ar    1  UNL1        0.0636
     29 C         143.4491  142.5031  168.2571 C.ar    1  UNL1        0.0159
     30 C         143.5833  142.0851  169.6914 C.ar    1  UNL1        0.0014
     31 C         142.9850  140.7898  170.1542 C.ar    1  UNL1        0.0013
     32 C         142.2525  139.9125  169.1828 C.ar    1  UNL1        0.0153
     33 C         142.1182  140.3306  167.7484 C.ar    1  UNL1        0.0552
     34 N         141.3857  139.4533  166.7769 N.pl3   1  UNL1       -0.3560
     35 H         140.9930  138.6032  167.0807 H       1  UNL1        0.1424
     36 H         141.2976  139.7277  165.8356 H       1  UNL1        0.1424
@<TRIPOS>BOND
     1    21    22    1
     2    22    23    1
     3    22    15    1
     4    15    16    1
     5    16    17    1
     6    17    18    1
     7    18    14    1
     8    14     7    1
     9     7     8   ar
    10     8     9   ar
    11     9    10   ar
    12    10     1    1
    13     1     2   ar
    14     2     3   ar
    15     3     4   ar
    16     4    24    1
    17    24    25    2
    18    24    26   am
    19    26    28    1
    20    28    29   ar
    21    29    30   ar
    22    30    31   ar
    23    31    32   ar
    24    32    33   ar
    25    33    34    1
    26     4     5   ar
    27     5     6   ar
    28    10    11   ar
    29    11    12    1
    30    11    13   ar
    31    18    19    1
    32    19    20    1
    33    20    15    1
    34    13     7   ar
    35     6     1   ar
    36    33    28   ar
    37    26    27    1
    38    34    35    1
    39    34    36    1
@<TRIPOS>MOLECULE
*****
 36 39 0 0 0
SMALL
GASTEIGER

@<TRIPOS>ATOM
      1 C         142.9155  139.8008  159.1864 C.ar    1  UNL1        0.0199
      2 C         142.9565  139.0623  157.8815 C.ar    1  UNL1        0.0017
      3 C         143.8760  139.5209  156.7888 C.ar    1  UNL1        0.0046
      4 C         144.7545  140.7181  157.0009 C.ar    1  UNL1        0.0537
      5 C         144.7135  141.4567  158.3058 C.ar    1  UNL1        0.0046
      6 C         143.7940  140.9980  159.3986 C.ar    1  UNL1        0.0017
      7 C         140.1571  138.4250  162.4649 C.ar    1  UNL1        0.0153
      8 C         139.8480  139.6787  161.7014 C.ar    1  UNL1        0.0960
      9 N         140.7675  140.1373  160.6087 N.ar    1  UNL1       -0.2419
     10 C         141.9960  139.3422  160.2793 C.ar    1  UNL1        0.1086
     11 C         142.3051  138.0886  161.0427 C.ar    1  UNL1        0.1574
     12 F         143.5337  137.2935  160.7133 F       1  UNL1       -0.2026
     13 C         141.3856  137.6299  162.1355 C.ar    1  UNL1        0.0298
     14 C         139.2376  137.9664  163.5577 C.3     1  UNL1        0.1008
     15 N         139.5206  139.8043  167.6555 N.3     1  UNL1       -0.2716
     16 C         138.2595  139.1133  167.2289 C.3     1  UNL1        0.0896
     17 C         138.1651  138.5007  165.8630 C.3     1  UNL1        0.0899
     18 N         139.3319  138.5790  164.9236 N.3     1  UNL1       -0.2665
     19 C         140.5931  139.2700  165.3503 C.3     1  UNL1        0.0899
     20 C         140.6874  139.8826  166.7162 C.3     1  UNL1        0.0896
     21 C         138.5232  140.1863  170.0239 C.3     1  UNL1        0.0173
     22 C         139.6150  140.4169  169.0215 C.3     1  UNL1        0.0577
     23 C         140.8011  141.2600  169.3850 C.3     1  UNL1        0.0173
     24 C         145.6740  141.1768  155.9081 C.2     1  UNL1        0.2495
     25 O         145.3178  140.9244  154.4730 O.2     1  UNL1       -0.2698
     26 N         146.9496  141.8878  156.2503 N.am    1  UNL1       -0.2794
     27 H         147.1834  142.0534  157.1922 H       1  UNL1        0.1552
     28 C         147.8690  142.3464  155.1575 C.ar    1  UNL1        0.0636
     29 C         149.2034  141.6861  154.9736 C.ar    1  UNL1        0.0159
     30 C         150.1228  142.1447  153.8807 C.ar    1  UNL1        0.0014
     31 C         149.7080  143.2635  152.9718 C.ar    1  UNL1        0.0013
     32 C         148.3737  143.9237  153.1556 C.ar    1  UNL1        0.0153
     33 C         147.4542  143.4652  154.2485 C.ar    1  UNL1        0.0552
     34 N         146.1200  144.1254  154.4324 N.pl3   1  UNL1       -0.3560
     35 H         145.8477  144.8597  153.8358 H       1  UNL1        0.1424
     36 H         145.5165  143.8244  155.1496 H       1  UNL1        0.1424
@<TRIPOS>BOND
     1    21    22    1
     2    22    23    1
     3    22    15    1
     4    15    16    1
     5    16    17    1
     6    17    18    1
     7    18    14    1
     8    14     7    1
     9     7     8   ar
    10     8     9   ar
    11     9    10   ar
    12    10     1    1
    13     1     2   ar
    14     2     3   ar
    15     3     4   ar
    16     4    24    1
    17    24    25    2
    18    24    26   am
    19    26    28    1
    20    28    29   ar
    21    29    30   ar
    22    30    31   ar
    23    31    32   ar
    24    32    33   ar
    25    33    34    1
    26     4     5   ar
    27     5     6   ar
    28    10    11   ar
    29    11    12    1
    30    11    13   ar
    31    18    19    1
    32    19    20    1
    33    20    15    1
    34    13     7   ar
    35     6     1   ar
    36    33    28   ar
    37    26    27    1
    38    34    35    1
    39    34    36    1
@<TRIPOS>MOLECULE
*****
 36 39 0 0 0
SMALL
GASTEIGER

@<TRIPOS>ATOM
      1 C         140.8931  139.2420  161.2729 C.ar    1  UNL1        0.0199
      2 C         140.0599  138.5107  162.2833 C.ar    1  UNL1        0.0017
      3 C         139.7888  139.1307  163.6220 C.ar    1  UNL1        0.0046
      4 C         140.3509  140.4821  163.9502 C.ar    1  UNL1        0.0537
      5 C         141.1841  141.2135  162.9398 C.ar    1  UNL1        0.0046
      6 C         141.4552  140.5934  161.6012 C.ar    1  UNL1        0.0017
      7 C         141.7063  137.3819  157.2568 C.ar    1  UNL1        0.0153
      8 C         140.3635  137.9848  157.5461 C.ar    1  UNL1        0.0960
      9 N         140.0925  138.6048  158.8848 N.ar    1  UNL1       -0.2419
     10 C         141.1642  138.6219  159.9342 C.ar    1  UNL1        0.1086
     11 C         142.5068  138.0191  159.6450 C.ar    1  UNL1        0.1574
     12 F         143.5785  138.0362  160.6944 F       1  UNL1       -0.2026
     13 C         142.7779  137.3990  158.3062 C.ar    1  UNL1        0.0298
     14 C         141.9773  136.7618  155.9182 C.3     1  UNL1        0.1008
     15 N         143.0488  132.4005  155.6339 N.3     1  UNL1       -0.2716
     16 C         144.0727  133.3960  156.0929 C.3     1  UNL1        0.0896
     17 C         143.7155  134.8498  156.1876 C.3     1  UNL1        0.0899
     18 N         142.3345  135.3081  155.8234 N.3     1  UNL1       -0.2665
     19 C         141.3107  134.3126  155.3645 C.3     1  UNL1        0.0899
     20 C         141.6678  132.8588  155.2697 C.3     1  UNL1        0.0896
     21 C         142.3419  129.9304  155.2482 C.3     1  UNL1        0.0173
     22 C         143.4060  130.9468  155.5392 C.3     1  UNL1        0.0577
     23 C         144.8273  130.5093  155.7354 C.3     1  UNL1        0.0173
     24 C         140.0798  141.1022  165.2889 C.2     1  UNL1        0.2495
     25 O         138.9832  142.1147  165.4383 O.2     1  UNL1       -0.2698
     26 N         140.9053  140.7098  166.4782 N.am    1  UNL1       -0.2794
     27 H         141.6251  140.0452  166.3802 H       1  UNL1        0.1552
     28 C         140.6342  141.3298  167.8169 C.ar    1  UNL1        0.0636
     29 C         141.3892  142.5539  168.2432 C.ar    1  UNL1        0.0159
     30 C         141.1181  143.1739  169.5819 C.ar    1  UNL1        0.0014
     31 C         140.0920  142.5700  170.4942 C.ar    1  UNL1        0.0013
     32 C         139.3370  141.3460  170.0679 C.ar    1  UNL1        0.0153
     33 C         139.6081  140.7259  168.7292 C.ar    1  UNL1        0.0552
     34 N         138.8531  139.5018  168.3029 N.pl3   1  UNL1       -0.3560
     35 H         138.1797  139.1055  168.9017 H       1  UNL1        0.1424
     36 H         139.0311  139.0949  167.4243 H       1  UNL1        0.1424
@<TRIPOS>BOND
     1    21    22    1
     2    22    23    1
     3    22    15    1
     4    15    16    1
     5    16    17    1
     6    17    18    1
     7    18    14    1
     8    14     7    1
     9     7     8   ar
    10     8     9   ar
    11     9    10   ar
    12    10     1    1
    13     1     2   ar
    14     2     3   ar
    15     3     4   ar
    16     4    24    1
    17    24    25    2
    18    24    26   am
    19    26    28    1
    20    28    29   ar
    21    29    30   ar
    22    30    31   ar
    23    31    32   ar
    24    32    33   ar
    25    33    34    1
    26     4     5   ar
    27     5     6   ar
    28    10    11   ar
    29    11    12    1
    30    11    13   ar
    31    18    19    1
    32    19    20    1
    33    20    15    1
    34    13     7   ar
    35     6     1   ar
    36    33    28   ar
    37    26    27    1
    38    34    35    1
    39    34    36    1
@<TRIPOS>MOLECULE
*****
 36 39 0 0 0
SMALL
GASTEIGER

@<TRIPOS>ATOM
      1 C         141.1125  138.8280  162.0547 C.ar    1  UNL1        0.0199
      2 C         141.0307  137.7741  163.1189 C.ar    1  UNL1        0.0017
      3 C         140.8211  138.1689  164.5508 C.ar    1  UNL1        0.0046
      4 C         140.6933  139.6176  164.9183 C.ar    1  UNL1        0.0537
      5 C         140.7751  140.6714  163.8541 C.ar    1  UNL1        0.0046
      6 C         140.9847  140.2766  162.4223 C.ar    1  UNL1        0.0017
      7 C         141.7413  137.6437  157.7590 C.ar    1  UNL1        0.0153
      8 C         140.4168  138.1931  158.1994 C.ar    1  UNL1        0.0960
      9 N         140.2072  138.5878  159.6313 N.ar    1  UNL1       -0.2419
     10 C         141.3221  138.4332  160.6228 C.ar    1  UNL1        0.1086
     11 C         142.6466  137.8838  160.1824 C.ar    1  UNL1        0.1574
     12 F         143.7615  137.7292  161.1739 F       1  UNL1       -0.2026
     13 C         142.8562  137.4891  158.7505 C.ar    1  UNL1        0.0298
     14 C         141.9509  137.2489  156.3272 C.3     1  UNL1        0.1008
     15 N         142.7515  132.9480  155.2729 N.3     1  UNL1       -0.2716
     16 C         141.4178  133.5606  154.9628 C.3     1  UNL1        0.0896
     17 C         141.1510  134.9942  155.3142 C.3     1  UNL1        0.0899
     18 N         142.2177  135.8153  155.9758 N.3     1  UNL1       -0.2665
     19 C         143.5513  135.2028  156.2859 C.3     1  UNL1        0.0899
     20 C         143.8182  133.7692  155.9345 C.3     1  UNL1        0.0896
     21 C         141.9268  130.6709  154.3326 C.3     1  UNL1        0.0173
     22 C         143.0183  131.5144  154.9215 C.3     1  UNL1        0.0577
     23 C         144.3767  130.9243  155.1591 C.3     1  UNL1        0.0173
     24 C         140.4837  140.0124  166.3502 C.2     1  UNL1        0.2495
     25 O         139.2536  139.5609  167.0803 O.2     1  UNL1       -0.2698
     26 N         141.5042  140.8585  167.0520 N.am    1  UNL1       -0.2794
     27 H         142.3115  141.1548  166.5729 H       1  UNL1        0.1552
     28 C         141.2945  141.2533  168.4838 C.ar    1  UNL1        0.0636
     29 C         140.4586  142.4536  168.8163 C.ar    1  UNL1        0.0159
     30 C         140.2489  142.8483  170.2481 C.ar    1  UNL1        0.0014
     31 C         140.8752  142.0428  171.3476 C.ar    1  UNL1        0.0013
     32 C         141.7111  140.8425  171.0152 C.ar    1  UNL1        0.0153
     33 C         141.9208  140.4477  169.5833 C.ar    1  UNL1        0.0552
     34 N         142.7567  139.2474  169.2510 N.pl3   1  UNL1       -0.3560
     35 H         143.1678  138.7187  169.9726 H       1  UNL1        0.1424
     36 H         142.8943  138.9883  168.3112 H       1  UNL1        0.1424
@<TRIPOS>BOND
     1    21    22    1
     2    22    23    1
     3    22    15    1
     4    15    16    1
     5    16    17    1
     6    17    18    1
     7    18    14    1
     8    14     7    1
     9     7     8   ar
    10     8     9   ar
    11     9    10   ar
    12    10     1    1
    13     1     2   ar
    14     2     3   ar
    15     3     4   ar
    16     4    24    1
    17    24    25    2
    18    24    26   am
    19    26    28    1
    20    28    29   ar
    21    29    30   ar
    22    30    31   ar
    23    31    32   ar
    24    32    33   ar
    25    33    34    1
    26     4     5   ar
    27     5     6   ar
    28    10    11   ar
    29    11    12    1
    30    11    13   ar
    31    18    19    1
    32    19    20    1
    33    20    15    1
    34    13     7   ar
    35     6     1   ar
    36    33    28   ar
    37    26    27    1
    38    34    35    1
    39    34    36    1
@<TRIPOS>MOLECULE
*****
 36 39 0 0 0
SMALL
GASTEIGER

@<TRIPOS>ATOM
      1 C         139.8175  143.1803  160.0524 C.ar    1  UNL1        0.0199
      2 C         139.3351  142.8714  158.6661 C.ar    1  UNL1        0.0017
      3 C         139.4828  143.8912  157.5761 C.ar    1  UNL1        0.0046
      4 C         140.1129  145.2198  157.8723 C.ar    1  UNL1        0.0537
      5 C         140.5953  145.5287  159.2586 C.ar    1  UNL1        0.0046
      6 C         140.4477  144.5089  160.3486 C.ar    1  UNL1        0.0017
      7 C         139.3746  140.1210  163.3227 C.ar    1  UNL1        0.0153
      8 C         140.4284  139.9459  162.2696 C.ar    1  UNL1        0.0960
      9 N         140.5760  140.9657  161.1795 N.ar    1  UNL1       -0.2419
     10 C         139.6699  142.1605  161.1425 C.ar    1  UNL1        0.1086
     11 C         138.6162  142.3356  162.1956 C.ar    1  UNL1        0.1574
     12 F         137.7100  143.5304  162.1586 F       1  UNL1       -0.2026
     13 C         138.4685  141.3158  163.2857 C.ar    1  UNL1        0.0298
     14 C         139.2270  139.1012  164.4128 C.3     1  UNL1        0.1008
     15 N         140.8693  139.9414  168.5173 N.3     1  UNL1       -0.2716
     16 C         141.8048  139.6857  167.3731 C.3     1  UNL1        0.0896
     17 C         141.2574  139.4056  166.0049 C.3     1  UNL1        0.0899
     18 N         139.7744  139.3813  165.7810 N.3     1  UNL1       -0.2665
     19 C         138.8389  139.6370  166.9252 C.3     1  UNL1        0.0899
     20 C         139.3863  139.9170  168.2934 C.3     1  UNL1        0.0896
     21 C         140.4816  140.4190  171.0415 C.3     1  UNL1        0.0173
     22 C         141.4167  140.2214  169.8855 C.3     1  UNL1        0.0577
     23 C         142.8993  140.3039  170.0977 C.3     1  UNL1        0.0173
     24 C         140.2605  146.2396  156.7822 C.2     1  UNL1        0.2495
     25 O         141.4770  146.2285  155.9046 O.2     1  UNL1       -0.2698
     26 N         139.1918  147.2704  156.5697 N.am    1  UNL1       -0.2794
     27 H         138.3934  147.2776  157.1457 H       1  UNL1        0.1552
     28 C         139.3395  148.2901  155.4796 C.ar    1  UNL1        0.0636
     29 C         139.8657  147.8807  154.1358 C.ar    1  UNL1        0.0159
     30 C         140.0134  148.9004  153.0458 C.ar    1  UNL1        0.0014
     31 C         139.6349  150.3295  153.2993 C.ar    1  UNL1        0.0013
     32 C         139.1086  150.7389  154.6429 C.ar    1  UNL1        0.0153
     33 C         138.9609  149.7192  155.7331 C.ar    1  UNL1        0.0552
     34 N         138.4347  150.1286  157.0768 N.pl3   1  UNL1       -0.3560
     35 H         138.1863  151.0666  157.2432 H       1  UNL1        0.1424
     36 H         138.3378  149.4594  157.7923 H       1  UNL1        0.1424
@<TRIPOS>BOND
     1    21    22    1
     2    22    23    1
     3    22    15    1
     4    15    16    1
     5    16    17    1
     6    17    18    1
     7    18    14    1
     8    14     7    1
     9     7     8   ar
    10     8     9   ar
    11     9    10   ar
    12    10     1    1
    13     1     2   ar
    14     2     3   ar
    15     3     4   ar
    16     4    24    1
    17    24    25    2
    18    24    26   am
    19    26    28    1
    20    28    29   ar
    21    29    30   ar
    22    30    31   ar
    23    31    32   ar
    24    32    33   ar
    25    33    34    1
    26     4     5   ar
    27     5     6   ar
    28    10    11   ar
    29    11    12    1
    30    11    13   ar
    31    18    19    1
    32    19    20    1
    33    20    15    1
    34    13     7   ar
    35     6     1   ar
    36    33    28   ar
    37    26    27    1
    38    34    35    1
    39    34    36    1
@<TRIPOS>MOLECULE
*****
 36 39 0 0 0
SMALL
GASTEIGER

@<TRIPOS>ATOM
      1 C         141.0065  138.8308  161.7834 C.ar    1  UNL1        0.0199
      2 C         140.9596  137.7392  162.8110 C.ar    1  UNL1        0.0017
      3 C         140.7796  138.0809  164.2604 C.ar    1  UNL1        0.0046
      4 C         140.6464  139.5142  164.6822 C.ar    1  UNL1        0.0537
      5 C         140.6933  140.6058  163.6545 C.ar    1  UNL1        0.0046
      6 C         140.8733  140.2642  162.2051 C.ar    1  UNL1        0.0017
      7 C         141.5467  137.8059  157.4350 C.ar    1  UNL1        0.0153
      8 C         142.7145  137.7326  158.3736 C.ar    1  UNL1        0.0960
      9 N         142.5344  138.0742  159.8230 N.ar    1  UNL1       -0.2419
     10 C         141.1865  138.4892  160.3339 C.ar    1  UNL1        0.1086
     11 C         140.0188  138.5625  159.3954 C.ar    1  UNL1        0.1574
     12 F         138.6709  138.9775  159.9063 F       1  UNL1       -0.2026
     13 C         140.1988  138.2209  157.9459 C.ar    1  UNL1        0.0298
     14 C         141.7268  137.4643  155.9856 C.3     1  UNL1        0.1008
     15 N         141.8603  133.1572  154.6889 N.3     1  UNL1       -0.2716
     16 C         142.4769  133.5672  155.9933 C.3     1  UNL1        0.0896
     17 C         142.4325  135.0029  156.4256 C.3     1  UNL1        0.0899
     18 N         141.7713  136.0286  155.5534 N.3     1  UNL1       -0.2665
     19 C         141.1546  135.6186  154.2489 C.3     1  UNL1        0.0899
     20 C         141.1991  134.1829  153.8167 C.3     1  UNL1        0.0896
     21 C         140.8014  130.7851  154.6508 C.3     1  UNL1        0.0173
     22 C         141.9048  131.7215  154.2566 C.3     1  UNL1        0.0577
     23 C         143.0527  131.2223  153.4302 C.3     1  UNL1        0.0173
     24 C         140.4663  139.8558  166.1317 C.2     1  UNL1        0.2495
     25 O         139.2967  139.3051  166.8923 O.2     1  UNL1       -0.2698
     26 N         141.4559  140.7482  166.8204 N.am    1  UNL1       -0.2794
     27 H         142.2235  141.1097  166.3212 H       1  UNL1        0.1552
     28 C         141.2758  141.0898  168.2698 C.ar    1  UNL1        0.0636
     29 C         140.3872  142.2314  168.6666 C.ar    1  UNL1        0.0159
     30 C         140.2071  142.5730  170.1160 C.ar    1  UNL1        0.0014
     31 C         140.9155  141.7731  171.1687 C.ar    1  UNL1        0.0013
     32 C         141.8040  140.6316  170.7720 C.ar    1  UNL1        0.0153
     33 C         141.9842  140.2899  169.3225 C.ar    1  UNL1        0.0552
     34 N         142.8727  139.1484  168.9259 N.pl3   1  UNL1       -0.3560
     35 H         143.3376  138.6233  169.6168 H       1  UNL1        0.1424
     36 H         142.9909  138.9241  167.9746 H       1  UNL1        0.1424
@<TRIPOS>BOND
     1    21    22    1
     2    22    23    1
     3    22    15    1
     4    15    16    1
     5    16    17    1
     6    17    18    1
     7    18    14    1
     8    14     7    1
     9     7     8   ar
    10     8     9   ar
    11     9    10   ar
    12    10     1    1
    13     1     2   ar
    14     2     3   ar
    15     3     4   ar
    16     4    24    1
    17    24    25    2
    18    24    26   am
    19    26    28    1
    20    28    29   ar
    21    29    30   ar
    22    30    31   ar
    23    31    32   ar
    24    32    33   ar
    25    33    34    1
    26     4     5   ar
    27     5     6   ar
    28    10    11   ar
    29    11    12    1
    30    11    13   ar
    31    18    19    1
    32    19    20    1
    33    20    15    1
    34    13     7   ar
    35     6     1   ar
    36    33    28   ar
    37    26    27    1
    38    34    35    1
    39    34    36    1
@<TRIPOS>MOLECULE
*****
 36 39 0 0 0
SMALL
GASTEIGER

@<TRIPOS>ATOM
      1 C         143.0876  141.3737  161.0705 C.ar    1  UNL1        0.0199
      2 C         141.6430  141.3298  161.4720 C.ar    1  UNL1        0.0017
      3 C         141.2699  141.2464  162.9224 C.ar    1  UNL1        0.0046
      4 C         142.3414  141.2068  163.9714 C.ar    1  UNL1        0.0537
      5 C         143.7860  141.2507  163.5699 C.ar    1  UNL1        0.0046
      6 C         144.1591  141.3341  162.1194 C.ar    1  UNL1        0.0017
      7 C         144.2070  141.6240  156.7191 C.ar    1  UNL1        0.0153
      8 C         143.9560  142.8785  157.5024 C.ar    1  UNL1        0.0960
      9 N         143.5829  142.7950  158.9528 N.ar    1  UNL1       -0.2419
     10 C         143.4607  141.4571  159.6200 C.ar    1  UNL1        0.1086
     11 C         143.7116  140.2027  158.8368 C.ar    1  UNL1        0.1574
     12 F         143.5894  138.8649  159.5040 F       1  UNL1       -0.2026
     13 C         144.0847  140.2862  157.3863 C.ar    1  UNL1        0.0298
     14 C         144.5801  141.7075  155.2686 C.3     1  UNL1        0.1008
     15 N         148.8742  142.3438  154.0830 N.3     1  UNL1       -0.2716
     16 C         147.7818  142.5271  153.0716 C.3     1  UNL1        0.0896
     17 C         146.3504  142.3150  153.4668 C.3     1  UNL1        0.0899
     18 N         146.0114  141.9196  154.8734 N.3     1  UNL1       -0.2665
     19 C         147.1038  141.7364  155.8849 C.3     1  UNL1        0.0899
     20 C         148.5352  141.9484  155.4896 C.3     1  UNL1        0.0896
     21 C         150.6656  143.6588  152.7371 C.3     1  UNL1        0.0173
     22 C         150.3055  142.5559  153.6878 C.3     1  UNL1        0.0577
     23 C         151.3769  141.6651  154.2432 C.3     1  UNL1        0.0173
     24 C         141.9683  141.1234  165.4219 C.2     1  UNL1        0.2495
     25 O         142.8599  140.3972  166.3850 O.2     1  UNL1       -0.2698
     26 N         140.7036  141.7661  165.9091 N.am    1  UNL1       -0.2794
     27 H         140.1185  142.2428  165.2770 H       1  UNL1        0.1552
     28 C         140.3306  141.6827  167.3596 C.ar    1  UNL1        0.0636
     29 C         140.6413  142.8250  168.2809 C.ar    1  UNL1        0.0159
     30 C         140.2683  142.7415  169.7313 C.ar    1  UNL1        0.0014
     31 C         139.5844  141.5158  170.2605 C.ar    1  UNL1        0.0013
     32 C         139.2736  140.3736  169.3393 C.ar    1  UNL1        0.0153
     33 C         139.6467  140.4570  167.8888 C.ar    1  UNL1        0.0552
     34 N         139.3360  139.3148  166.9675 N.pl3   1  UNL1       -0.3560
     35 H         138.8871  138.5103  167.3149 H       1  UNL1        0.1424
     36 H         139.5808  139.3695  166.0156 H       1  UNL1        0.1424
@<TRIPOS>BOND
     1    21    22    1
     2    22    23    1
     3    22    15    1
     4    15    16    1
     5    16    17    1
     6    17    18    1
     7    18    14    1
     8    14     7    1
     9     7     8   ar
    10     8     9   ar
    11     9    10   ar
    12    10     1    1
    13     1     2   ar
    14     2     3   ar
    15     3     4   ar
    16     4    24    1
    17    24    25    2
    18    24    26   am
    19    26    28    1
    20    28    29   ar
    21    29    30   ar
    22    30    31   ar
    23    31    32   ar
    24    32    33   ar
    25    33    34    1
    26     4     5   ar
    27     5     6   ar
    28    10    11   ar
    29    11    12    1
    30    11    13   ar
    31    18    19    1
    32    19    20    1
    33    20    15    1
    34    13     7   ar
    35     6     1   ar
    36    33    28   ar
    37    26    27    1
    38    34    35    1
    39    34    36    1
@<TRIPOS>MOLECULE
*****
 36 39 0 0 0
SMALL
GASTEIGER

@<TRIPOS>ATOM
      1 C         142.5984  138.0455  158.1198 C.ar    1  UNL1        0.0199
      2 C         142.7739  137.6300  159.5503 C.ar    1  UNL1        0.0017
      3 C         142.8164  138.6674  160.6328 C.ar    1  UNL1        0.0046
      4 C         142.6834  140.1204  160.2848 C.ar    1  UNL1        0.0537
      5 C         142.5079  140.5360  158.8542 C.ar    1  UNL1        0.0046
      6 C         142.4654  139.4985  157.7718 C.ar    1  UNL1        0.0017
      7 C         142.4709  134.9331  154.8721 C.ar    1  UNL1        0.0153
      8 C         143.7805  135.3093  155.4995 C.ar    1  UNL1        0.0960
      9 N         143.8229  136.3468  156.5820 N.ar    1  UNL1       -0.2419
     10 C         142.5559  137.0080  157.0372 C.ar    1  UNL1        0.1086
     11 C         141.2463  136.6319  156.4099 C.ar    1  UNL1        0.1574
     12 F         139.9792  137.2932  156.8651 F       1  UNL1       -0.2026
     13 C         141.2038  135.5944  155.3273 C.ar    1  UNL1        0.0298
     14 C         142.4284  133.8957  153.7896 C.3     1  UNL1        0.1008
     15 N         141.2639  129.6621  154.7748 N.3     1  UNL1       -0.2716
     16 C         142.4380  130.2958  155.4602 C.3     1  UNL1        0.0896
     17 C         142.8262  131.7070  155.1318 C.3     1  UNL1        0.0899
     18 N         142.0402  132.4845  154.1180 N.3     1  UNL1       -0.2665
     19 C         140.8661  131.8508  153.4326 C.3     1  UNL1        0.0899
     20 C         140.4779  130.4396  153.7610 C.3     1  UNL1        0.0896
     21 C         141.9310  127.1921  155.2263 C.3     1  UNL1        0.0173
     22 C         140.8757  128.2509  155.1032 C.3     1  UNL1        0.0577
     23 C         139.4322  127.8985  155.3086 C.3     1  UNL1        0.0173
     24 C         142.7259  141.1579  161.3674 C.2     1  UNL1        0.2495
     25 O         141.4639  141.5584  162.0723 O.2     1  UNL1       -0.2698
     26 N         144.0304  141.7949  161.7449 N.am    1  UNL1       -0.2794
     27 H         144.8587  141.5320  161.2822 H       1  UNL1        0.1552
     28 C         144.0729  142.8323  162.8275 C.ar    1  UNL1        0.0636
     29 C         144.7050  142.5114  164.1494 C.ar    1  UNL1        0.0159
     30 C         144.7475  143.5488  165.2319 C.ar    1  UNL1        0.0014
     31 C         144.1578  144.9071  164.9926 C.ar    1  UNL1        0.0013
     32 C         143.5257  145.2280  163.6707 C.ar    1  UNL1        0.0153
     33 C         143.4832  144.1906  162.5881 C.ar    1  UNL1        0.0552
     34 N         142.8511  144.5115  161.2662 N.pl3   1  UNL1       -0.3560
     35 H         142.4641  145.4030  161.1092 H       1  UNL1        0.1424
     36 H         142.8232  143.8306  160.5557 H       1  UNL1        0.1424
@<TRIPOS>BOND
     1    21    22    1
     2    22    23    1
     3    22    15    1
     4    15    16    1
     5    16    17    1
     6    17    18    1
     7    18    14    1
     8    14     7    1
     9     7     8   ar
    10     8     9   ar
    11     9    10   ar
    12    10     1    1
    13     1     2   ar
    14     2     3   ar
    15     3     4   ar
    16     4    24    1
    17    24    25    2
    18    24    26   am
    19    26    28    1
    20    28    29   ar
    21    29    30   ar
    22    30    31   ar
    23    31    32   ar
    24    32    33   ar
    25    33    34    1
    26     4     5   ar
    27     5     6   ar
    28    10    11   ar
    29    11    12    1
    30    11    13   ar
    31    18    19    1
    32    19    20    1
    33    20    15    1
    34    13     7   ar
    35     6     1   ar
    36    33    28   ar
    37    26    27    1
    38    34    35    1
    39    34    36    1
@<TRIPOS>MOLECULE
*****
 36 39 0 0 0
SMALL
GASTEIGER

@<TRIPOS>ATOM
      1 C         142.7337  142.0397  159.8641 C.ar    1  UNL1        0.0199
      2 C         142.2426  141.5412  158.5373 C.ar    1  UNL1        0.0017
      3 C         143.1584  141.5441  157.3494 C.ar    1  UNL1        0.0046
      4 C         144.5653  142.0455  157.4882 C.ar    1  UNL1        0.0537
      5 C         145.0563  142.5441  158.8149 C.ar    1  UNL1        0.0046
      6 C         144.1405  142.5412  160.0028 C.ar    1  UNL1        0.0017
      7 C         139.9863  142.0310  163.4281 C.ar    1  UNL1        0.0153
      8 C         140.4514  140.7334  162.8364 C.ar    1  UNL1        0.0960
      9 N         141.3671  140.7363  161.6484 N.ar    1  UNL1       -0.2419
     10 C         141.8179  142.0368  161.0521 C.ar    1  UNL1        0.1086
     11 C         141.3528  143.3344  161.6437 C.ar    1  UNL1        0.1574
     12 F         141.8036  144.6348  161.0474 F       1  UNL1       -0.2026
     13 C         140.4370  143.3315  162.8318 C.ar    1  UNL1        0.0298
     14 C         139.0705  142.0281  164.6161 C.3     1  UNL1        0.1008
     15 N         140.6426  140.8545  168.6660 N.3     1  UNL1       -0.2716
     16 C         140.9687  142.2035  168.0969 C.3     1  UNL1        0.0896
     17 C         140.4447  142.5946  166.7469 C.3     1  UNL1        0.0899
     18 N         139.5946  141.6369  165.9661 N.3     1  UNL1       -0.2665
     19 C         139.2684  140.2879  166.5351 C.3     1  UNL1        0.0899
     20 C         139.7924  139.8967  167.8851 C.3     1  UNL1        0.0896
     21 C         142.0374  139.2505  170.1598 C.3     1  UNL1        0.0173
     22 C         141.1666  140.4633  170.0159 C.3     1  UNL1        0.0577
     23 C         140.8198  141.2850  171.2220 C.3     1  UNL1        0.0173
     24 C         145.4811  142.0484  156.3001 C.2     1  UNL1        0.2495
     25 O         145.1105  141.2811  155.0656 O.2     1  UNL1       -0.2698
     26 N         146.7674  142.8185  156.3466 N.am    1  UNL1       -0.2794
     27 H         147.0106  143.3221  157.1568 H       1  UNL1        0.1552
     28 C         147.6831  142.8214  155.1586 C.ar    1  UNL1        0.0636
     29 C         148.8218  141.8475  155.0870 C.ar    1  UNL1        0.0159
     30 C         149.7376  141.8504  153.8990 C.ar    1  UNL1        0.0014
     31 C         149.5146  142.8271  152.7826 C.ar    1  UNL1        0.0013
     32 C         148.3760  143.8009  152.8541 C.ar    1  UNL1        0.0153
     33 C         147.4602  143.7981  154.0422 C.ar    1  UNL1        0.0552
     34 N         146.3216  144.7719  154.1137 N.pl3   1  UNL1       -0.3560
     35 H         146.1753  145.4129  153.3810 H       1  UNL1        0.1424
     36 H         145.7205  144.7700  154.8935 H       1  UNL1        0.1424
@<TRIPOS>BOND
     1    21    22    1
     2    22    23    1
     3    22    15    1
     4    15    16    1
     5    16    17    1
     6    17    18    1
     7    18    14    1
     8    14     7    1
     9     7     8   ar
    10     8     9   ar
    11     9    10   ar
    12    10     1    1
    13     1     2   ar
    14     2     3   ar
    15     3     4   ar
    16     4    24    1
    17    24    25    2
    18    24    26   am
    19    26    28    1
    20    28    29   ar
    21    29    30   ar
    22    30    31   ar
    23    31    32   ar
    24    32    33   ar
    25    33    34    1
    26     4     5   ar
    27     5     6   ar
    28    10    11   ar
    29    11    12    1
    30    11    13   ar
    31    18    19    1
    32    19    20    1
    33    20    15    1
    34    13     7   ar
    35     6     1   ar
    36    33    28   ar
    37    26    27    1
    38    34    35    1
    39    34    36    1
