@<TRIPOS>MOLECULE
*****
 36 39 0 0 0
SMALL
GASTEIGER

@<TRIPOS>ATOM
      1 C         142.0517  142.4963  163.1465 C.ar    1  UNL1        0.2046
      2 N         141.4250  141.1571  163.3987 N.ar    1  UNL1       -0.1998
      3 C         141.6065  140.4821  164.7260 C.ar    1  UNL1        0.1389
      4 N         140.9798  139.1428  164.9782 N.pl3   1  UNL1       -0.3420
      5 C         142.4148  141.1463  165.8009 C.ar    1  UNL1        0.1169
      6 C         143.0415  142.4856  165.5486 C.ar    1  UNL1        0.2716
      7 O         143.8498  143.1499  166.6235 O.2     1  UNL1       -0.2663
      8 N         142.8599  143.1606  164.2214 N.ar    1  UNL1       -0.2662
      9 C         143.4867  144.4999  163.9691 C.3     1  UNL1        0.1363
     10 H         140.4493  138.7069  164.2727 H       1  UNL1        0.1437
     11 H         141.0990  138.6998  165.8493 H       1  UNL1        0.1437
     12 C         139.7175  146.8160  156.5964 C.3     1  UNL1        0.0000
     13 C         140.6010  145.8863  157.3742 C.3     1  UNL1        0.0014
     14 C         141.8543  145.2337  156.8708 C.3     1  UNL1        0.0155
     15 C         142.4143  144.3900  157.9776 C.3     1  UNL1        0.0508
     16 N         143.6623  143.5608  157.9090 N.3     1  UNL1       -0.3222
     17 C         141.5071  144.5213  159.1649 C.3     1  UNL1        0.0163
     18 C         142.6832  143.6186  159.3926 C.3     1  UNL1        0.0228
     19 C         142.8647  142.9436  160.7198 C.3     1  UNL1        0.0936
     20 N         141.8701  143.1713  161.8193 N.pl3   1  UNL1       -0.2794
     21 C         140.6940  144.0740  161.5916 C.3     1  UNL1        0.0936
     22 C         140.5125  144.7490  160.2644 C.3     1  UNL1        0.0228
     23 C         140.3864  145.4461  158.7920 C.3     1  UNL1        0.0014
     24 H         144.0828  143.6551  156.9845 H       1  UNL1        0.1188
     25 H         143.4300  142.5822  158.0786 H       1  UNL1        0.1188
     26 S         142.5964  140.4714  167.1280 S.3     1  UNL1       -0.0780
     27 C         141.5292  140.5793  168.1765 C.ar    1  UNL1        0.0514
     28 C         140.1564  140.0378  167.9079 C.ar    1  UNL1        0.0095
     29 C         139.0892  140.1458  168.9565 C.ar    1  UNL1        0.0212
     30 C         139.3948  140.7952  170.2736 C.ar    1  UNL1        0.0988
     31 N         140.7676  141.3367  170.5422 N.ar    1  UNL1       -0.2394
     32 C         141.8348  141.2287  169.4937 C.ar    1  UNL1        0.1585
     33 C         143.2076  141.7702  169.7624 C.3     1  UNL1        0.4353
     34 F         144.5804  142.3117  170.0310 F       1  UNL1       -0.1644
     35 F         142.7677  143.1224  169.2848 F       1  UNL1       -0.1644
     36 F         143.6475  140.4181  170.2400 F       1  UNL1       -0.1644
@<TRIPOS>BOND
     1    13    12    1
     2    13    14    1
     3    14    15    1
     4    15    16    1
     5    15    17    1
     6    17    18    1
     7    18    19    1
     8    19    20    1
     9    20     1    1
    10     1     2   ar
    11     2     3   ar
    12     3     4    1
    13     3     5   ar
    14     5    26    1
    15    26    27    1
    16    27    28   ar
    17    28    29   ar
    18    29    30   ar
    19    30    31   ar
    20    31    32   ar
    21    32    33    1
    22    33    34    1
    23    33    35    1
    24    33    36    1
    25     5     6   ar
    26     6     7    2
    27     6     8   ar
    28     8     9    1
    29    20    21    1
    30    21    22    1
    31    17    23    1
    32    23    13    1
    33    22    17    1
    34     8     1   ar
    35    32    27   ar
    36    16    24    1
    37    16    25    1
    38     4    10    1
    39     4    11    1
@<TRIPOS>MOLECULE
*****
 36 39 0 0 0
SMALL
GASTEIGER

@<TRIPOS>ATOM
      1 C         140.0506  143.7231  159.3902 C.ar    1  UNL1        0.2046
      2 N         139.8271  144.9207  160.2652 N.ar    1  UNL1       -0.1998
      3 C         140.6301  145.0928  161.5205 C.ar    1  UNL1        0.1389
      4 N         140.4067  146.2905  162.3955 N.pl3   1  UNL1       -0.3420
      5 C         141.6566  144.0673  161.9007 C.ar    1  UNL1        0.1169
      6 C         141.8801  142.8696  161.0256 C.ar    1  UNL1        0.2716
      7 O         142.9066  141.8440  161.4058 O.2     1  UNL1       -0.2663
      8 N         141.0771  142.6975  159.7704 N.ar    1  UNL1       -0.2662
      9 C         141.3006  141.4999  158.8953 C.3     1  UNL1        0.1363
     10 H         139.7330  146.9636  162.1460 H       1  UNL1        0.1437
     11 H         140.9337  146.4034  163.2194 H       1  UNL1        0.1437
     12 C         134.8342  141.6811  153.4211 C.3     1  UNL1        0.0000
     13 C         135.9821  142.4265  154.0346 C.3     1  UNL1        0.0014
     14 C         136.8301  143.4578  153.3509 C.3     1  UNL1        0.0155
     15 C         137.8558  143.9401  154.3334 C.3     1  UNL1        0.0508
     16 N         138.9103  144.9741  154.0710 N.3     1  UNL1       -0.3222
     17 C         137.6418  143.2069  155.6244 C.3     1  UNL1        0.0163
     18 C         138.7775  144.1861  155.6599 C.3     1  UNL1        0.0228
     19 C         139.5805  144.3581  156.9151 C.3     1  UNL1        0.0936
     20 N         139.2476  143.5510  158.1349 N.pl3   1  UNL1       -0.2794
     21 C         138.1119  142.5719  158.0994 C.3     1  UNL1        0.0936
     22 C         137.3090  142.3998  156.8442 C.3     1  UNL1        0.0228
     23 C         136.4838  142.2714  155.4397 C.3     1  UNL1        0.0014
     24 H         138.8277  145.3079  153.1107 H       1  UNL1        0.1188
     25 H         139.8328  144.5616  154.2095 H       1  UNL1        0.1188
     26 S         142.4596  144.2393  163.1559 S.3     1  UNL1       -0.0780
     27 C         141.9947  143.6102  164.4357 C.ar    1  UNL1        0.0514
     28 C         140.5729  143.7811  164.8823 C.ar    1  UNL1        0.0095
     29 C         140.1081  143.1519  166.1622 C.ar    1  UNL1        0.0212
     30 C         141.0649  142.3519  166.9955 C.ar    1  UNL1        0.0988
     31 N         142.4866  142.1809  166.5489 N.ar    1  UNL1       -0.2394
     32 C         142.9515  142.8101  165.2690 C.ar    1  UNL1        0.1585
     33 C         144.3733  142.6391  164.8224 C.3     1  UNL1        0.4353
     34 F         145.7950  142.4682  164.3758 F       1  UNL1       -0.1644
     35 F         144.7359  143.9377  165.4799 F       1  UNL1       -0.1644
     36 F         144.0106  141.3406  164.1650 F       1  UNL1       -0.1644
@<TRIPOS>BOND
     1    13    12    1
     2    13    14    1
     3    14    15    1
     4    15    16    1
     5    15    17    1
     6    17    18    1
     7    18    19    1
     8    19    20    1
     9    20     1    1
    10     1     2   ar
    11     2     3   ar
    12     3     4    1
    13     3     5   ar
    14     5    26    1
    15    26    27    1
    16    27    28   ar
    17    28    29   ar
    18    29    30   ar
    19    30    31   ar
    20    31    32   ar
    21    32    33    1
    22    33    34    1
    23    33    35    1
    24    33    36    1
    25     5     6   ar
    26     6     7    2
    27     6     8   ar
    28     8     9    1
    29    20    21    1
    30    21    22    1
    31    17    23    1
    32    23    13    1
    33    22    17    1
    34     8     1   ar
    35    32    27   ar
    36    16    24    1
    37    16    25    1
    38     4    10    1
    39     4    11    1
@<TRIPOS>MOLECULE
*****
 36 39 0 0 0
SMALL
GASTEIGER

@<TRIPOS>ATOM
      1 C         142.0590  142.6429  163.5333 C.ar    1  UNL1        0.2046
      2 N         141.1662  141.5136  163.9544 N.ar    1  UNL1       -0.1998
      3 C         141.2886  140.9346  165.3328 C.ar    1  UNL1        0.1389
      4 N         140.3957  139.8053  165.7540 N.pl3   1  UNL1       -0.3420
      5 C         142.3039  141.4851  166.2900 C.ar    1  UNL1        0.1169
      6 C         143.1968  142.6144  165.8688 C.ar    1  UNL1        0.2716
      7 O         144.2120  143.1649  166.8260 O.2     1  UNL1       -0.2663
      8 N         143.0743  143.1933  164.4904 N.ar    1  UNL1       -0.2662
      9 C         143.9672  144.3227  164.0692 C.3     1  UNL1        0.1363
     10 H         139.7294  139.4440  165.1257 H       1  UNL1        0.1437
     11 H         140.4761  139.4253  166.6586 H       1  UNL1        0.1437
     12 C         142.6012  144.7586  155.6440 C.3     1  UNL1        0.0000
     13 C         142.0535  144.8200  157.0390 C.3     1  UNL1        0.0014
     14 C         140.9531  145.7212  157.5152 C.3     1  UNL1        0.0155
     15 C         140.7295  145.4491  158.9734 C.3     1  UNL1        0.0508
     16 N         139.7207  146.1273  159.8523 N.3     1  UNL1       -0.3222
     17 C         141.6917  144.3797  159.3982 C.3     1  UNL1        0.0163
     18 C         140.7999  144.8707  160.4999 C.3     1  UNL1        0.0228
     19 C         140.9224  144.2918  161.8782 C.3     1  UNL1        0.0936
     20 N         141.9366  143.2218  162.1549 N.pl3   1  UNL1       -0.2794
     21 C         142.8283  142.7308  161.0532 C.3     1  UNL1        0.0936
     22 C         142.7059  143.3097  159.6749 C.3     1  UNL1        0.0228
     23 C         142.5100  143.9909  158.2027 C.3     1  UNL1        0.0014
     24 H         139.1994  146.8126  159.3054 H       1  UNL1        0.1188
     25 H         140.2003  146.5983  160.6195 H       1  UNL1        0.1188
     26 S         142.4263  140.9062  167.6683 S.3     1  UNL1       -0.0780
     27 C         141.7002  141.5425  168.8162 C.ar    1  UNL1        0.0514
     28 C         140.9204  142.8060  168.6026 C.ar    1  UNL1        0.0095
     29 C         140.1942  143.4423  169.7506 C.ar    1  UNL1        0.0212
     30 C         140.2478  142.8152  171.1121 C.ar    1  UNL1        0.0988
     31 N         141.0276  141.5517  171.3257 N.ar    1  UNL1       -0.2394
     32 C         141.7537  140.9154  170.1779 C.ar    1  UNL1        0.1585
     33 C         142.5335  139.6519  170.3915 C.3     1  UNL1        0.4353
     34 F         143.3133  138.3885  170.6051 F       1  UNL1       -0.1644
     35 F         143.7801  140.4578  170.6070 F       1  UNL1       -0.1644
     36 F         141.2868  138.8461  170.1760 F       1  UNL1       -0.1644
@<TRIPOS>BOND
     1    13    12    1
     2    13    14    1
     3    14    15    1
     4    15    16    1
     5    15    17    1
     6    17    18    1
     7    18    19    1
     8    19    20    1
     9    20     1    1
    10     1     2   ar
    11     2     3   ar
    12     3     4    1
    13     3     5   ar
    14     5    26    1
    15    26    27    1
    16    27    28   ar
    17    28    29   ar
    18    29    30   ar
    19    30    31   ar
    20    31    32   ar
    21    32    33    1
    22    33    34    1
    23    33    35    1
    24    33    36    1
    25     5     6   ar
    26     6     7    2
    27     6     8   ar
    28     8     9    1
    29    20    21    1
    30    21    22    1
    31    17    23    1
    32    23    13    1
    33    22    17    1
    34     8     1   ar
    35    32    27   ar
    36    16    24    1
    37    16    25    1
    38     4    10    1
    39     4    11    1
@<TRIPOS>MOLECULE
*****
 36 39 0 0 0
SMALL
GASTEIGER

@<TRIPOS>ATOM
      1 C         141.3714  139.7351  163.5049 C.ar    1  UNL1        0.2046
      2 N         142.6611  139.0012  163.2856 N.ar    1  UNL1       -0.1998
      3 C         142.9621  138.3974  161.9458 C.ar    1  UNL1        0.1389
      4 N         144.2517  137.6635  161.7265 N.pl3   1  UNL1       -0.3420
      5 C         141.9734  138.5277  160.8253 C.ar    1  UNL1        0.1169
      6 C         140.6837  139.2617  161.0446 C.ar    1  UNL1        0.2716
      7 O         139.6950  139.3920  159.9241 O.2     1  UNL1       -0.2663
      8 N         140.3827  139.8654  162.3844 N.ar    1  UNL1       -0.2662
      9 C         139.0930  140.5994  162.6037 C.3     1  UNL1        0.1363
     10 H         144.9006  137.5780  162.4620 H       1  UNL1        0.1437
     11 H         144.4492  137.2673  160.8472 H       1  UNL1        0.1437
     12 C         140.5082  144.3418  170.2164 C.3     1  UNL1        0.0000
     13 C         140.3484  143.1087  169.3775 C.3     1  UNL1        0.0014
     14 C         139.6622  141.8416  169.7943 C.3     1  UNL1        0.0155
     15 C         139.7364  140.8759  168.6488 C.3     1  UNL1        0.0508
     16 N         139.1768  139.4843  168.6312 N.3     1  UNL1       -0.3222
     17 C         140.4685  141.5462  167.5241 C.3     1  UNL1        0.0163
     18 C         140.0247  140.1470  167.2152 C.3     1  UNL1        0.0228
     19 C         140.3257  139.5434  165.8755 C.3     1  UNL1        0.0936
     20 N         141.0704  140.3388  164.8447 N.pl3   1  UNL1       -0.2794
     21 C         141.5142  141.7380  165.1536 C.3     1  UNL1        0.0936
     22 C         141.2132  142.3416  166.4933 C.3     1  UNL1        0.0228
     23 C         140.8467  142.9261  167.9745 C.3     1  UNL1        0.0014
     24 H         138.7305  139.2860  169.5267 H       1  UNL1        0.1188
     25 H         139.9312  138.8165  168.4720 H       1  UNL1        0.1188
     26 S         142.2743  137.9240  159.4856 S.3     1  UNL1       -0.0780
     27 C         142.9411  138.7481  158.4244 C.ar    1  UNL1        0.0514
     28 C         143.6492  140.0175  158.7949 C.ar    1  UNL1        0.0095
     29 C         144.3160  140.8416  157.7336 C.ar    1  UNL1        0.0212
     30 C         144.2747  140.3963  156.3019 C.ar    1  UNL1        0.0988
     31 N         143.5666  139.1270  155.9313 N.ar    1  UNL1       -0.2394
     32 C         142.8998  138.3029  156.9925 C.ar    1  UNL1        0.1585
     33 C         142.1917  137.0335  156.6219 C.3     1  UNL1        0.4353
     34 F         141.4836  135.7642  156.2514 F       1  UNL1       -0.1644
     35 F         143.4653  136.2658  156.8183 F       1  UNL1       -0.1644
     36 F         140.9181  137.8013  156.4256 F       1  UNL1       -0.1644
@<TRIPOS>BOND
     1    13    12    1
     2    13    14    1
     3    14    15    1
     4    15    16    1
     5    15    17    1
     6    17    18    1
     7    18    19    1
     8    19    20    1
     9    20     1    1
    10     1     2   ar
    11     2     3   ar
    12     3     4    1
    13     3     5   ar
    14     5    26    1
    15    26    27    1
    16    27    28   ar
    17    28    29   ar
    18    29    30   ar
    19    30    31   ar
    20    31    32   ar
    21    32    33    1
    22    33    34    1
    23    33    35    1
    24    33    36    1
    25     5     6   ar
    26     6     7    2
    27     6     8   ar
    28     8     9    1
    29    20    21    1
    30    21    22    1
    31    17    23    1
    32    23    13    1
    33    22    17    1
    34     8     1   ar
    35    32    27   ar
    36    16    24    1
    37    16    25    1
    38     4    10    1
    39     4    11    1
@<TRIPOS>MOLECULE
*****
 36 39 0 0 0
SMALL
GASTEIGER

@<TRIPOS>ATOM
      1 C         141.2647  139.7762  163.5172 C.ar    1  UNL1        0.2046
      2 N         140.2587  139.9055  162.4121 N.ar    1  UNL1       -0.1998
      3 C         140.5394  139.3019  161.0679 C.ar    1  UNL1        0.1389
      4 N         139.5335  139.4313  159.9628 N.pl3   1  UNL1       -0.3420
      5 C         141.8261  138.5689  160.8289 C.ar    1  UNL1        0.1169
      6 C         142.8321  138.4395  161.9341 C.ar    1  UNL1        0.2716
      7 O         144.1188  137.7065  161.6950 O.2     1  UNL1       -0.2663
      8 N         142.5514  139.0432  163.2782 N.ar    1  UNL1       -0.2662
      9 C         143.5573  138.9138  164.3834 C.3     1  UNL1        0.1363
     10 H         138.6890  139.9124  160.1197 H       1  UNL1        0.1437
     11 H         139.7177  139.0351  159.0806 H       1  UNL1        0.1437
     12 C         140.4825  144.3906  170.2334 C.3     1  UNL1        0.0000
     13 C         140.3211  143.1532  169.4012 C.3     1  UNL1        0.0014
     14 C         139.6600  141.8786  169.8355 C.3     1  UNL1        0.0155
     15 C         139.7227  140.9106  168.6913 C.3     1  UNL1        0.0508
     16 N         139.1808  139.5120  168.6889 N.3     1  UNL1       -0.3222
     17 C         140.4225  141.5870  167.5498 C.3     1  UNL1        0.0163
     18 C         139.9904  140.1814  167.2538 C.3     1  UNL1        0.0228
     19 C         140.2711  139.5779  165.9097 C.3     1  UNL1        0.0936
     20 N         140.9840  140.3798  164.8615 N.pl3   1  UNL1       -0.2794
     21 C         141.4161  141.7854  165.1575 C.3     1  UNL1        0.0936
     22 C         141.1354  142.3889  166.5016 C.3     1  UNL1        0.0228
     23 C         140.7923  142.9729  167.9886 C.3     1  UNL1        0.0014
     24 H         138.7558  139.3105  169.5940 H       1  UNL1        0.1188
     25 H         139.9401  138.8534  168.5157 H       1  UNL1        0.1188
     26 S         142.1069  137.9653  159.4847 S.3     1  UNL1       -0.0780
     27 C         142.8580  138.7516  158.4516 C.ar    1  UNL1        0.0514
     28 C         143.5740  140.0107  158.8415 C.ar    1  UNL1        0.0095
     29 C         144.3251  140.7970  157.8083 C.ar    1  UNL1        0.0212
     30 C         144.3602  140.3243  156.3852 C.ar    1  UNL1        0.0988
     31 N         143.6443  139.0652  155.9953 N.ar    1  UNL1       -0.2394
     32 C         142.8931  138.2789  157.0284 C.ar    1  UNL1        0.1585
     33 C         142.1772  137.0198  156.6385 C.3     1  UNL1        0.4353
     34 F         141.4612  135.7607  156.2485 F       1  UNL1       -0.1644
     35 F         140.9413  137.8153  156.3388 F       1  UNL1       -0.1644
     36 F         143.4130  136.2242  156.9381 F       1  UNL1       -0.1644
@<TRIPOS>BOND
     1    13    12    1
     2    13    14    1
     3    14    15    1
     4    15    16    1
     5    15    17    1
     6    17    18    1
     7    18    19    1
     8    19    20    1
     9    20     1    1
    10     1     2   ar
    11     2     3   ar
    12     3     4    1
    13     3     5   ar
    14     5    26    1
    15    26    27    1
    16    27    28   ar
    17    28    29   ar
    18    29    30   ar
    19    30    31   ar
    20    31    32   ar
    21    32    33    1
    22    33    34    1
    23    33    35    1
    24    33    36    1
    25     5     6   ar
    26     6     7    2
    27     6     8   ar
    28     8     9    1
    29    20    21    1
    30    21    22    1
    31    17    23    1
    32    23    13    1
    33    22    17    1
    34     8     1   ar
    35    32    27   ar
    36    16    24    1
    37    16    25    1
    38     4    10    1
    39     4    11    1
@<TRIPOS>MOLECULE
*****
 36 39 0 0 0
SMALL
GASTEIGER

@<TRIPOS>ATOM
      1 C         141.9211  139.8796  162.7849 C.ar    1  UNL1        0.2046
      2 N         142.4994  138.9118  163.7743 N.ar    1  UNL1       -0.1998
      3 C         142.7375  139.3406  165.1918 C.ar    1  UNL1        0.1389
      4 N         143.3158  138.3728  166.1812 N.pl3   1  UNL1       -0.3420
      5 C         142.3973  140.7374  165.6200 C.ar    1  UNL1        0.1169
      6 C         141.8189  141.7053  164.6306 C.ar    1  UNL1        0.2716
      7 O         141.4787  143.1020  165.0588 O.2     1  UNL1       -0.2663
      8 N         141.5809  141.2764  163.2131 N.ar    1  UNL1       -0.2662
      9 C         141.0026  142.2442  162.2237 C.3     1  UNL1        0.1363
     10 H         143.5391  137.4560  165.9001 H       1  UNL1        0.1437
     11 H         143.4720  138.6543  167.1115 H       1  UNL1        0.1437
     12 C         139.0904  137.2601  155.5644 C.3     1  UNL1        0.0000
     13 C         140.1246  137.7832  156.5165 C.3     1  UNL1        0.0014
     14 C         141.5566  138.0830  156.1853 C.3     1  UNL1        0.0155
     15 C         142.2255  138.5835  157.4312 C.3     1  UNL1        0.0508
     16 N         143.6609  139.0012  157.5543 N.3     1  UNL1       -0.3222
     17 C         141.2070  138.5931  158.5323 C.3     1  UNL1        0.0163
     18 C         142.5661  139.0671  158.9543 C.3     1  UNL1        0.0228
     19 C         142.8041  139.4959  160.3718 C.3     1  UNL1        0.0936
     20 N         141.6830  139.4507  161.3674 N.pl3   1  UNL1       -0.2794
     21 C         140.3239  138.9767  160.9454 C.3     1  UNL1        0.0936
     22 C         140.0859  138.5479  159.5279 C.3     1  UNL1        0.0228
     23 C         139.9085  138.0984  157.9670 C.3     1  UNL1        0.0014
     24 H         144.1248  138.8937  156.6522 H       1  UNL1        0.1188
     25 H         144.1269  138.4164  158.2480 H       1  UNL1        0.1188
     26 S         142.6353  141.1663  167.0375 S.3     1  UNL1       -0.0780
     27 C         141.5782  140.9395  168.0772 C.ar    1  UNL1        0.0514
     28 C         140.2652  140.3260  167.6905 C.ar    1  UNL1        0.0095
     29 C         139.2080  140.0993  168.7303 C.ar    1  UNL1        0.0212
     30 C         139.4640  140.4861  170.1568 C.ar    1  UNL1        0.0988
     31 N         140.7770  141.0996  170.5435 N.ar    1  UNL1       -0.2394
     32 C         141.8341  141.3263  169.5038 C.ar    1  UNL1        0.1585
     33 C         143.1471  141.9398  169.8906 C.3     1  UNL1        0.4353
     34 F         144.4602  142.5533  170.2773 F       1  UNL1       -0.1644
     35 F         143.6802  140.5810  170.2363 F       1  UNL1       -0.1644
     36 F         142.6141  143.2986  169.5448 F       1  UNL1       -0.1644
@<TRIPOS>BOND
     1    13    12    1
     2    13    14    1
     3    14    15    1
     4    15    16    1
     5    15    17    1
     6    17    18    1
     7    18    19    1
     8    19    20    1
     9    20     1    1
    10     1     2   ar
    11     2     3   ar
    12     3     4    1
    13     3     5   ar
    14     5    26    1
    15    26    27    1
    16    27    28   ar
    17    28    29   ar
    18    29    30   ar
    19    30    31   ar
    20    31    32   ar
    21    32    33    1
    22    33    34    1
    23    33    35    1
    24    33    36    1
    25     5     6   ar
    26     6     7    2
    27     6     8   ar
    28     8     9    1
    29    20    21    1
    30    21    22    1
    31    17    23    1
    32    23    13    1
    33    22    17    1
    34     8     1   ar
    35    32    27   ar
    36    16    24    1
    37    16    25    1
    38     4    10    1
    39     4    11    1
@<TRIPOS>MOLECULE
*****
 36 39 0 0 0
SMALL
GASTEIGER

@<TRIPOS>ATOM
      1 C         140.9019  140.0031  163.2700 C.ar    1  UNL1        0.2046
      2 N         141.7334  141.1613  163.7360 N.ar    1  UNL1       -0.1998
      3 C         141.5595  141.6983  165.1258 C.ar    1  UNL1        0.1389
      4 N         142.3909  142.8565  165.5918 N.pl3   1  UNL1       -0.3420
      5 C         140.5541  141.0771  166.0495 C.ar    1  UNL1        0.1169
      6 C         139.7226  139.9188  165.5835 C.ar    1  UNL1        0.2716
      7 O         138.7172  139.2976  166.5072 O.2     1  UNL1       -0.2663
      8 N         139.8965  139.3818  164.1937 N.ar    1  UNL1       -0.2662
      9 C         139.0651  138.2235  163.7277 C.3     1  UNL1        0.1363
     10 H         143.0508  143.2642  164.9855 H       1  UNL1        0.1437
     11 H         142.2768  143.2090  166.5039 H       1  UNL1        0.1437
     12 C         143.2991  136.5466  156.2474 C.3     1  UNL1        0.0000
     13 C         142.3656  137.2969  157.1504 C.3     1  UNL1        0.0014
     14 C         141.0167  137.8343  156.7739 C.3     1  UNL1        0.0155
     15 C         140.4345  138.5112  157.9794 C.3     1  UNL1        0.0508
     16 N         139.0979  139.1882  158.0508 N.3     1  UNL1       -0.3222
     17 C         141.4235  138.3920  159.1008 C.3     1  UNL1        0.0163
     18 C         140.1685  139.1259  159.4697 C.3     1  UNL1        0.0228
     19 C         139.9946  139.6629  160.8594 C.3     1  UNL1        0.0936
     20 N         141.0758  139.4660  161.8802 N.pl3   1  UNL1       -0.2794
     21 C         142.3309  138.7321  161.5114 C.3     1  UNL1        0.0936
     22 C         142.5048  138.1951  160.1217 C.3     1  UNL1        0.0228
     23 C         142.6170  137.6416  158.5884 C.3     1  UNL1        0.0014
     24 H         138.6337  139.1207  157.1451 H       1  UNL1        0.1188
     25 H         139.2268  140.1703  158.2944 H       1  UNL1        0.1188
     26 S         140.3802  141.6140  167.4392 S.3     1  UNL1       -0.0780
     27 C         141.1655  141.0264  168.5740 C.ar    1  UNL1        0.0514
     28 C         141.8646  139.7107  168.4003 C.ar    1  UNL1        0.0095
     29 C         142.6501  139.1231  169.5351 C.ar    1  UNL1        0.0212
     30 C         142.7364  139.8512  170.8437 C.ar    1  UNL1        0.0988
     31 N         142.0373  141.1669  171.0175 N.ar    1  UNL1       -0.2394
     32 C         141.2519  141.7545  169.8827 C.ar    1  UNL1        0.1585
     33 C         140.5528  143.0702  170.0565 C.3     1  UNL1        0.4353
     34 F         139.8537  144.3859  170.2302 F       1  UNL1       -0.1644
     35 F         139.2731  142.3499  170.3623 F       1  UNL1       -0.1644
     36 F         141.8324  143.7905  169.7506 F       1  UNL1       -0.1644
@<TRIPOS>BOND
     1    13    12    1
     2    13    14    1
     3    14    15    1
     4    15    16    1
     5    15    17    1
     6    17    18    1
     7    18    19    1
     8    19    20    1
     9    20     1    1
    10     1     2   ar
    11     2     3   ar
    12     3     4    1
    13     3     5   ar
    14     5    26    1
    15    26    27    1
    16    27    28   ar
    17    28    29   ar
    18    29    30   ar
    19    30    31   ar
    20    31    32   ar
    21    32    33    1
    22    33    34    1
    23    33    35    1
    24    33    36    1
    25     5     6   ar
    26     6     7    2
    27     6     8   ar
    28     8     9    1
    29    20    21    1
    30    21    22    1
    31    17    23    1
    32    23    13    1
    33    22    17    1
    34     8     1   ar
    35    32    27   ar
    36    16    24    1
    37    16    25    1
    38     4    10    1
    39     4    11    1
@<TRIPOS>MOLECULE
*****
 36 39 0 0 0
SMALL
GASTEIGER

@<TRIPOS>ATOM
      1 C         142.8672  141.4937  162.1335 C.ar    1  UNL1        0.2046
      2 N         141.7529  142.4535  162.4285 N.ar    1  UNL1       -0.1998
      3 C         141.1434  142.4970  163.7985 C.ar    1  UNL1        0.1389
      4 N         140.0291  143.4569  164.0935 N.pl3   1  UNL1       -0.3420
      5 C         141.6481  141.5806  164.8733 C.ar    1  UNL1        0.1169
      6 C         142.7625  140.6207  164.5783 C.ar    1  UNL1        0.2716
      7 O         143.2672  139.7042  165.6531 O.2     1  UNL1       -0.2663
      8 N         143.3719  140.5772  163.2084 N.ar    1  UNL1       -0.2662
      9 C         144.4862  139.6174  162.9133 C.3     1  UNL1        0.1363
     10 H         139.6978  144.0583  163.3880 H       1  UNL1        0.1437
     11 H         139.6291  143.4854  164.9926 H       1  UNL1        0.1437
     12 C         146.8920  142.6716  155.1033 C.3     1  UNL1        0.0000
     13 C         145.9854  141.9447  156.0517 C.3     1  UNL1        0.0014
     14 C         145.2819  140.6480  155.7798 C.3     1  UNL1        0.0155
     15 C         144.4848  140.2887  156.9987 C.3     1  UNL1        0.0508
     16 N         143.6273  139.0690  157.1634 N.3     1  UNL1       -0.3222
     17 C         144.6957  141.3632  158.0239 C.3     1  UNL1        0.0163
     18 C         143.7817  140.2621  158.4733 C.3     1  UNL1        0.0228
     19 C         143.1722  140.3056  159.8432 C.3     1  UNL1        0.0936
     20 N         143.4767  141.4502  160.7636 N.pl3   1  UNL1       -0.2794
     21 C         144.3907  142.5514  160.3141 C.3     1  UNL1        0.0936
     22 C         145.0002  142.5079  158.9442 C.3     1  UNL1        0.0228
     23 C         145.6231  142.3867  157.4385 C.3     1  UNL1        0.0014
     24 H         143.6652  138.5092  156.3117 H       1  UNL1        0.1188
     25 H         142.6638  139.3523  157.3415 H       1  UNL1        0.1188
     26 S         141.0387  141.6240  166.2432 S.3     1  UNL1       -0.0780
     27 C         139.9413  140.6681  166.6064 C.ar    1  UNL1        0.0514
     28 C         139.0627  140.0928  165.5354 C.ar    1  UNL1        0.0095
     29 C         137.9653  139.1368  165.8987 C.ar    1  UNL1        0.0212
     30 C         137.7465  138.7562  167.3330 C.ar    1  UNL1        0.0988
     31 N         138.6251  139.3315  168.4040 N.ar    1  UNL1       -0.2394
     32 C         139.7225  140.2874  168.0408 C.ar    1  UNL1        0.1585
     33 C         140.6010  140.8627  169.1118 C.3     1  UNL1        0.4353
     34 F         141.4796  141.4380  170.1829 F       1  UNL1       -0.1644
     35 F         139.5979  141.9524  169.3494 F       1  UNL1       -0.1644
     36 F         141.6041  139.7730  168.8743 F       1  UNL1       -0.1644
@<TRIPOS>BOND
     1    13    12    1
     2    13    14    1
     3    14    15    1
     4    15    16    1
     5    15    17    1
     6    17    18    1
     7    18    19    1
     8    19    20    1
     9    20     1    1
    10     1     2   ar
    11     2     3   ar
    12     3     4    1
    13     3     5   ar
    14     5    26    1
    15    26    27    1
    16    27    28   ar
    17    28    29   ar
    18    29    30   ar
    19    30    31   ar
    20    31    32   ar
    21    32    33    1
    22    33    34    1
    23    33    35    1
    24    33    36    1
    25     5     6   ar
    26     6     7    2
    27     6     8   ar
    28     8     9    1
    29    20    21    1
    30    21    22    1
    31    17    23    1
    32    23    13    1
    33    22    17    1
    34     8     1   ar
    35    32    27   ar
    36    16    24    1
    37    16    25    1
    38     4    10    1
    39     4    11    1
@<TRIPOS>MOLECULE
*****
 36 39 0 0 0
SMALL
GASTEIGER

@<TRIPOS>ATOM
      1 C         142.8469  141.9897  161.4283 C.ar    1  UNL1        0.2046
      2 N         141.7012  142.9476  161.5685 N.ar    1  UNL1       -0.1998
      3 C         141.0795  143.1816  162.9135 C.ar    1  UNL1        0.1389
      4 N         139.9338  144.1394  163.0538 N.pl3   1  UNL1       -0.3420
      5 C         141.6036  142.4576  164.1182 C.ar    1  UNL1        0.1169
      6 C         142.7494  141.4997  163.9779 C.ar    1  UNL1        0.2716
      7 O         143.2736  140.7758  165.1825 O.2     1  UNL1       -0.2663
      8 N         143.3710  141.2658  162.6329 N.ar    1  UNL1       -0.2662
      9 C         144.5168  140.3078  162.4926 C.3     1  UNL1        0.1363
     10 H         139.5898  144.6146  162.2631 H       1  UNL1        0.1437
     11 H         139.5258  144.2930  163.9365 H       1  UNL1        0.1437
     12 C         145.0918  139.5506  153.9435 C.3     1  UNL1        0.0000
     13 C         145.1722  140.3817  155.1895 C.3     1  UNL1        0.0014
     14 C         146.1648  141.4738  155.4582 C.3     1  UNL1        0.0155
     15 C         145.8803  142.0338  156.8205 C.3     1  UNL1        0.0508
     16 N         146.6321  143.1447  157.4917 N.3     1  UNL1       -0.3222
     17 C         144.7119  141.2878  157.3935 C.3     1  UNL1        0.0163
     18 C         145.2606  142.3505  158.2988 C.3     1  UNL1        0.0228
     19 C         144.6389  142.5845  159.6436 C.3     1  UNL1        0.0936
     20 N         143.4686  141.7557  160.0833 N.pl3   1  UNL1       -0.2794
     21 C         142.9198  140.6930  159.1781 C.3     1  UNL1        0.0936
     22 C         143.5415  140.4590  157.8332 C.3     1  UNL1        0.0228
     23 C         144.2743  140.2668  156.3855 C.3     1  UNL1        0.0014
     24 H         147.3782  143.4702  156.8771 H       1  UNL1        0.1188
     25 H         147.0351  142.8037  158.3645 H       1  UNL1        0.1188
     26 S         140.9821  142.6916  165.4631 S.3     1  UNL1       -0.0780
     27 C         140.1953  141.5999  166.1258 C.ar    1  UNL1        0.0514
     28 C         139.2753  140.7386  165.3124 C.ar    1  UNL1        0.0095
     29 C         138.4885  139.6469  165.9751 C.ar    1  UNL1        0.0212
     30 C         138.6219  139.4164  167.4513 C.ar    1  UNL1        0.0988
     31 N         139.5420  140.2777  168.2647 N.ar    1  UNL1       -0.2394
     32 C         140.3287  141.3694  167.6020 C.ar    1  UNL1        0.1585
     33 C         141.2488  142.2306  168.4155 C.3     1  UNL1        0.4353
     34 F         142.1689  143.0919  169.2289 F       1  UNL1       -0.1644
     35 F         142.3632  141.2521  168.1909 F       1  UNL1       -0.1644
     36 F         140.1343  143.2092  168.6400 F       1  UNL1       -0.1644
@<TRIPOS>BOND
     1    13    12    1
     2    13    14    1
     3    14    15    1
     4    15    16    1
     5    15    17    1
     6    17    18    1
     7    18    19    1
     8    19    20    1
     9    20     1    1
    10     1     2   ar
    11     2     3   ar
    12     3     4    1
    13     3     5   ar
    14     5    26    1
    15    26    27    1
    16    27    28   ar
    17    28    29   ar
    18    29    30   ar
    19    30    31   ar
    20    31    32   ar
    21    32    33    1
    22    33    34    1
    23    33    35    1
    24    33    36    1
    25     5     6   ar
    26     6     7    2
    27     6     8   ar
    28     8     9    1
    29    20    21    1
    30    21    22    1
    31    17    23    1
    32    23    13    1
    33    22    17    1
    34     8     1   ar
    35    32    27   ar
    36    16    24    1
    37    16    25    1
    38     4    10    1
    39     4    11    1
