@<TRIPOS>MOLECULE
*****
 33 37 0 0 0
SMALL
GASTEIGER

@<TRIPOS>ATOM
      1 C         140.7382  138.4911  162.6028 C.ar    1  UNL1        0.0476
      2 C         139.5108  137.6841  162.9063 C.ar    1  UNL1        0.0142
      3 C         138.8265  137.8298  164.2331 C.ar    1  UNL1       -0.0033
      4 C         139.3696  138.7825  165.2564 C.ar    1  UNL1       -0.0260
      5 C         140.5970  139.5896  164.9530 C.ar    1  UNL1       -0.0236
      6 C         141.2813  139.4439  163.6262 C.ar    1  UNL1        0.0100
      7 C         141.1401  140.5424  165.9763 C.3     1  UNL1        0.0410
      8 C         140.4558  140.6881  167.3031 C.3     1  UNL1        0.0621
      9 C         139.2284  139.8810  167.6067 C.3     1  UNL1        0.0210
     10 C         138.6853  138.9282  166.5833 C.3     1  UNL1        0.0274
     11 C         142.3903  138.1395  159.3995 C.3     1  UNL1        0.1145
     12 C         142.6856  137.6911  160.8001 C.3     1  UNL1        0.1099
     13 N         141.4225  138.3455  161.2759 N.pl3   1  UNL1       -0.3045
     14 C         141.1272  138.7939  159.8753 C.3     1  UNL1        0.1099
     15 N         143.0746  137.9939  158.0727 N.3     1  UNL1       -0.1813
     16 H         143.1217  138.9262  157.6617 H       1  UNL1        0.1485
     17 S         142.4964  137.0881  157.0260 S.O2    1  UNL1        0.0408
     18 O         141.8029  138.2593  156.3955 O.2     1  UNL1       -0.1575
     19 O         143.1898  135.9169  157.6564 O.2     1  UNL1       -0.1575
     20 C         141.9183  136.1824  155.9794 C.3     1  UNL1        0.1688
     21 C         141.3848  133.7624  155.1991 C.3     1  UNL1        0.0019
     22 C         142.2107  134.7117  156.0156 C.3     1  UNL1        0.0270
     23 N         140.9989  141.6409  168.3265 N.3     1  UNL1       -0.2735
     24 C         140.6211  143.0111  168.8059 C.3     1  UNL1        0.0735
     25 C         141.7669  142.9883  169.7737 C.3     1  UNL1        0.0346
     26 C         142.1446  141.6182  169.2943 C.3     1  UNL1        0.0735
     27 C         142.3674  141.3495  165.6729 C.3     1  UNL1        0.0320
     28 C         142.2381  142.6977  165.0280 C.ar    1  UNL1       -0.0218
     29 C         140.8794  143.2795  164.7724 C.ar    1  UNL1       -0.0043
     30 C         140.7500  144.6276  164.1276 C.ar    1  UNL1       -0.0003
     31 C         141.9794  145.3939  163.7382 C.ar    1  UNL1       -0.0000
     32 C         143.3381  144.8120  163.9938 C.ar    1  UNL1       -0.0003
     33 C         143.4674  143.4639  164.6387 C.ar    1  UNL1       -0.0043
@<TRIPOS>BOND
     1    21    22    1
     2    22    20    1
     3    20    17    1
     4    17    18    2
     5    17    19    2
     6    17    15    1
     7    15    11    1
     8    11    12    1
     9    12    13    1
    10    13     1    1
    11     1     2   ar
    12     2     3   ar
    13     3     4   ar
    14     4     5   ar
    15     5     6   ar
    16     5     7    1
    17     7    27    1
    18    27    28    1
    19    28    29   ar
    20    29    30   ar
    21    30    31   ar
    22    31    32   ar
    23    32    33   ar
    24     7     8    1
    25     8    23    1
    26    23    24    1
    27    24    25    1
    28    25    26    1
    29     8     9    1
    30     9    10    1
    31    13    14    1
    32    14    11    1
    33     6     1   ar
    34    33    28   ar
    35    26    23    1
    36    10     4    1
    37    15    16    1
@<TRIPOS>MOLECULE
*****
 33 37 0 0 0
SMALL
GASTEIGER

@<TRIPOS>ATOM
      1 C         140.6879  138.5854  162.1601 C.ar    1  UNL1        0.0476
      2 C         139.1892  138.6023  162.2200 C.ar    1  UNL1        0.0142
      3 C         138.4937  138.8956  163.5162 C.ar    1  UNL1       -0.0033
      4 C         139.2969  139.1721  164.7525 C.ar    1  UNL1       -0.0260
      5 C         140.7956  139.1552  164.6926 C.ar    1  UNL1       -0.0236
      6 C         141.4911  138.8619  163.3964 C.ar    1  UNL1        0.0100
      7 C         141.5988  139.4317  165.9289 C.3     1  UNL1        0.0410
      8 C         140.9033  139.7250  167.2251 C.3     1  UNL1        0.0621
      9 C         139.4046  139.7419  167.2851 C.3     1  UNL1        0.0210
     10 C         138.6014  139.4654  166.0488 C.3     1  UNL1        0.0274
     11 C         142.3672  137.8772  159.0308 C.3     1  UNL1        0.1145
     12 C         141.0792  138.5422  159.4165 C.3     1  UNL1        0.1099
     13 N         141.3835  138.2921  160.8638 N.pl3   1  UNL1       -0.3045
     14 C         142.6715  137.6270  160.4781 C.3     1  UNL1        0.1099
     15 N         143.0627  137.5838  157.7346 N.3     1  UNL1       -0.1813
     16 H         143.1199  138.4655  157.2250 H       1  UNL1        0.1485
     17 S         142.4882  136.5726  156.7872 S.O2    1  UNL1        0.0408
     18 O         141.8233  137.6735  156.0152 O.2     1  UNL1       -0.1575
     19 O         143.1531  135.4717  157.5591 O.2     1  UNL1       -0.1575
     20 C         141.9138  135.5614  155.8399 C.3     1  UNL1        0.1688
     21 C         141.4115  133.0595  155.3520 C.3     1  UNL1        0.0019
     22 C         142.2763  134.1125  155.9790 C.3     1  UNL1        0.0270
     23 N         141.7065  140.0015  168.4614 N.3     1  UNL1       -0.2735
     24 C         142.3511  141.2178  169.0576 C.3     1  UNL1        0.0735
     25 C         142.8424  140.3925  170.2098 C.3     1  UNL1        0.0346
     26 C         142.1980  139.1764  169.6136 C.3     1  UNL1        0.0735
     27 C         143.0975  139.4148  165.8690 C.3     1  UNL1        0.0320
     28 C         143.8361  140.5617  165.2451 C.ar    1  UNL1       -0.0218
     29 C         143.4595  141.9723  165.5889 C.ar    1  UNL1       -0.0043
     30 C         144.1980  143.1191  164.9650 C.ar    1  UNL1       -0.0003
     31 C         145.3134  142.8554  163.9972 C.ar    1  UNL1       -0.0000
     32 C         145.6900  141.4447  163.6533 C.ar    1  UNL1       -0.0003
     33 C         144.9514  140.2979  164.2773 C.ar    1  UNL1       -0.0043
@<TRIPOS>BOND
     1    21    22    1
     2    22    20    1
     3    20    17    1
     4    17    18    2
     5    17    19    2
     6    17    15    1
     7    15    11    1
     8    11    12    1
     9    12    13    1
    10    13     1    1
    11     1     2   ar
    12     2     3   ar
    13     3     4   ar
    14     4     5   ar
    15     5     6   ar
    16     5     7    1
    17     7    27    1
    18    27    28    1
    19    28    29   ar
    20    29    30   ar
    21    30    31   ar
    22    31    32   ar
    23    32    33   ar
    24     7     8    1
    25     8    23    1
    26    23    24    1
    27    24    25    1
    28    25    26    1
    29     8     9    1
    30     9    10    1
    31    13    14    1
    32    14    11    1
    33     6     1   ar
    34    33    28   ar
    35    26    23    1
    36    10     4    1
    37    15    16    1
@<TRIPOS>MOLECULE
*****
 33 37 0 0 0
SMALL
GASTEIGER

@<TRIPOS>ATOM
      1 C         139.6696  142.5923  162.8523 C.ar    1  UNL1        0.0476
      2 C         138.3642  141.8873  162.6314 C.ar    1  UNL1        0.0142
      3 C         137.8566  140.9119  163.6516 C.ar    1  UNL1       -0.0033
      4 C         138.6543  140.6417  164.8928 C.ar    1  UNL1       -0.0260
      5 C         139.9597  141.3468  165.1138 C.ar    1  UNL1       -0.0236
      6 C         140.4673  142.3221  164.0935 C.ar    1  UNL1        0.0100
      7 C         140.7574  141.0765  166.3550 C.3     1  UNL1        0.0410
      8 C         140.2498  140.1012  167.3753 C.3     1  UNL1        0.0621
      9 C         138.9443  139.3960  167.1543 C.3     1  UNL1        0.0210
     10 C         138.1466  139.6663  165.9131 C.3     1  UNL1        0.0274
     11 C         140.8952  144.9472  160.3892 C.3     1  UNL1        0.1145
     12 C         141.1497  143.5002  160.6919 C.3     1  UNL1        0.1099
     13 N         140.1773  143.5677  161.8320 N.pl3   1  UNL1       -0.3045
     14 C         139.9228  145.0147  161.5293 C.3     1  UNL1        0.1099
     15 N         141.4028  145.9226  159.3689 N.3     1  UNL1       -0.1813
     16 H         141.0379  146.8385  159.6302 H       1  UNL1        0.1485
     17 S         141.0799  145.7257  157.9173 S.O2    1  UNL1        0.0408
     18 O         139.6828  145.3201  158.2831 O.2     1  UNL1       -0.1575
     19 O         142.4769  146.1313  157.5515 O.2     1  UNL1       -0.1575
     20 C         140.7570  145.5289  156.4658 C.3     1  UNL1        0.1688
     21 C         138.9734  146.9039  155.1704 C.3     1  UNL1        0.0019
     22 C         140.3934  146.7072  155.6119 C.3     1  UNL1        0.0270
     23 N         141.0475  139.8309  168.6165 N.3     1  UNL1       -0.2735
     24 C         142.4256  139.3103  168.8993 C.3     1  UNL1        0.0735
     25 C         142.1756  139.4488  170.3718 C.3     1  UNL1        0.0346
     26 C         140.7977  139.9693  170.0890 C.3     1  UNL1        0.0735
     27 C         142.0627  141.7816  166.5759 C.3     1  UNL1        0.0320
     28 C         143.2268  141.5057  165.6710 C.ar    1  UNL1       -0.0218
     29 C         144.0620  142.6404  165.1562 C.ar    1  UNL1       -0.0043
     30 C         145.2260  142.3646  164.2513 C.ar    1  UNL1       -0.0003
     31 C         145.5549  140.9540  163.8610 C.ar    1  UNL1       -0.0000
     32 C         144.7197  139.8193  164.3758 C.ar    1  UNL1       -0.0003
     33 C         143.5556  140.0952  165.2808 C.ar    1  UNL1       -0.0043
@<TRIPOS>BOND
     1    21    22    1
     2    22    20    1
     3    20    17    1
     4    17    18    2
     5    17    19    2
     6    17    15    1
     7    15    11    1
     8    11    12    1
     9    12    13    1
    10    13     1    1
    11     1     2   ar
    12     2     3   ar
    13     3     4   ar
    14     4     5   ar
    15     5     6   ar
    16     5     7    1
    17     7    27    1
    18    27    28    1
    19    28    29   ar
    20    29    30   ar
    21    30    31   ar
    22    31    32   ar
    23    32    33   ar
    24     7     8    1
    25     8    23    1
    26    23    24    1
    27    24    25    1
    28    25    26    1
    29     8     9    1
    30     9    10    1
    31    13    14    1
    32    14    11    1
    33     6     1   ar
    34    33    28   ar
    35    26    23    1
    36    10     4    1
    37    15    16    1
@<TRIPOS>MOLECULE
*****
 33 37 0 0 0
SMALL
GASTEIGER

@<TRIPOS>ATOM
      1 C         140.7470  138.5523  163.0396 C.ar    1  UNL1        0.0476
      2 C         139.5110  137.7725  163.3775 C.ar    1  UNL1        0.0142
      3 C         138.8500  137.9557  164.7114 C.ar    1  UNL1       -0.0033
      4 C         139.4249  138.9187  165.7075 C.ar    1  UNL1       -0.0260
      5 C         140.6609  139.6985  165.3696 C.ar    1  UNL1       -0.0236
      6 C         141.3219  139.5153  164.0357 C.ar    1  UNL1        0.0100
      7 C         141.2358  140.6615  166.3656 C.3     1  UNL1        0.0410
      8 C         140.5747  140.8447  167.6996 C.3     1  UNL1        0.0621
      9 C         139.3387  140.0649  168.0375 C.3     1  UNL1        0.0210
     10 C         138.7638  139.1019  167.0415 C.3     1  UNL1        0.0274
     11 C         142.3431  138.1101  159.8192 C.3     1  UNL1        0.1145
     12 C         140.9706  138.5056  160.2774 C.3     1  UNL1        0.1099
     13 N         141.4081  138.3691  161.7056 N.pl3   1  UNL1       -0.3045
     14 C         142.7806  137.9736  161.2475 C.3     1  UNL1        0.1099
     15 N         143.0042  137.9269  158.4853 N.3     1  UNL1       -0.1813
     16 H         143.9576  137.6147  158.6696 H       1  UNL1        0.1485
     17 S         143.1032  139.0812  157.5324 S.O2    1  UNL1        0.0408
     18 O         141.9702  138.5148  156.7287 O.2     1  UNL1       -0.1575
     19 O         144.2360  139.6476  158.3360 O.2     1  UNL1       -0.1575
     20 C         143.2020  140.2354  156.5795 C.3     1  UNL1        0.1688
     21 C         144.8713  138.8901  155.1120 C.3     1  UNL1        0.0019
     22 C         144.0290  140.1112  155.3343 C.3     1  UNL1        0.0270
     23 N         141.1497  141.8077  168.6956 N.3     1  UNL1       -0.2735
     24 C         140.7904  143.1851  169.1686 C.3     1  UNL1        0.0735
     25 C         141.9627  143.1696  170.1042 C.3     1  UNL1        0.0346
     26 C         142.3220  141.7923  169.6312 C.3     1  UNL1        0.0735
     27 C         142.4718  141.4413  166.0277 C.3     1  UNL1        0.0320
     28 C         142.3606  142.7342  165.2752 C.ar    1  UNL1       -0.0218
     29 C         143.5991  143.4336  164.7989 C.ar    1  UNL1       -0.0043
     30 C         143.4880  144.7264  164.0464 C.ar    1  UNL1       -0.0003
     31 C         142.1383  145.3198  163.7702 C.ar    1  UNL1       -0.0000
     32 C         140.8998  144.6204  164.2465 C.ar    1  UNL1       -0.0003
     33 C         141.0110  143.3276  164.9990 C.ar    1  UNL1       -0.0043
@<TRIPOS>BOND
     1    21    22    1
     2    22    20    1
     3    20    17    1
     4    17    18    2
     5    17    19    2
     6    17    15    1
     7    15    11    1
     8    11    12    1
     9    12    13    1
    10    13     1    1
    11     1     2   ar
    12     2     3   ar
    13     3     4   ar
    14     4     5   ar
    15     5     6   ar
    16     5     7    1
    17     7    27    1
    18    27    28    1
    19    28    29   ar
    20    29    30   ar
    21    30    31   ar
    22    31    32   ar
    23    32    33   ar
    24     7     8    1
    25     8    23    1
    26    23    24    1
    27    24    25    1
    28    25    26    1
    29     8     9    1
    30     9    10    1
    31    13    14    1
    32    14    11    1
    33     6     1   ar
    34    33    28   ar
    35    26    23    1
    36    10     4    1
    37    15    16    1
@<TRIPOS>MOLECULE
*****
 33 37 0 0 0
SMALL
GASTEIGER

@<TRIPOS>ATOM
      1 C         143.8480  140.7623  162.3423 C.ar    1  UNL1        0.0476
      2 C         144.1899  139.3211  162.5788 C.ar    1  UNL1        0.0142
      3 C         143.9536  138.7056  163.9261 C.ar    1  UNL1       -0.0033
      4 C         143.3752  139.5313  165.0368 C.ar    1  UNL1       -0.0260
      5 C         143.0332  140.9725  164.8003 C.ar    1  UNL1       -0.0236
      6 C         143.2696  141.5880  163.4530 C.ar    1  UNL1        0.0100
      7 C         142.4548  141.7982  165.9110 C.3     1  UNL1        0.0410
      8 C         142.2184  141.1827  167.2583 C.3     1  UNL1        0.0621
      9 C         142.5604  139.7414  167.4949 C.3     1  UNL1        0.0210
     10 C         143.1388  138.9157  166.3842 C.3     1  UNL1        0.0274
     11 C         144.4186  142.2483  159.0895 C.3     1  UNL1        0.1145
     12 C         144.7891  142.6054  160.4985 C.3     1  UNL1        0.1099
     13 N         144.0843  141.3779  160.9949 N.pl3   1  UNL1       -0.3045
     14 C         143.7138  141.0208  159.5859 C.3     1  UNL1        0.1099
     15 N         144.6549  142.8638  157.7422 N.3     1  UNL1       -0.1813
     16 H         143.7561  142.8713  157.2601 H       1  UNL1        0.1485
     17 S         145.6466  142.2483  156.8000 S.O2    1  UNL1        0.0408
     18 O         146.7717  142.8258  157.6068 O.2     1  UNL1       -0.1575
     19 O         144.5217  141.6709  155.9931 O.2     1  UNL1       -0.1575
     20 C         146.6383  141.6329  155.8578 C.3     1  UNL1        0.1688
     21 C         149.1866  141.6767  155.3534 C.3     1  UNL1        0.0019
     22 C         147.8725  142.3908  155.4676 C.3     1  UNL1        0.0270
     23 N         141.6400  142.0083  168.3690 N.3     1  UNL1       -0.2735
     24 C         140.2524  142.3569  168.8198 C.3     1  UNL1        0.0735
     25 C         140.8221  143.1760  169.9398 C.3     1  UNL1        0.0346
     26 C         142.2096  142.8275  169.4891 C.3     1  UNL1        0.0735
     27 C         142.1128  143.2393  165.6745 C.3     1  UNL1        0.0320
     28 C         140.8338  143.6024  164.9798 C.ar    1  UNL1       -0.0218
     29 C         139.5667  142.8712  165.3110 C.ar    1  UNL1       -0.0043
     30 C         138.2878  143.2343  164.6164 C.ar    1  UNL1       -0.0003
     31 C         138.2760  144.3286  163.5905 C.ar    1  UNL1       -0.0000
     32 C         139.5431  145.0599  163.2593 C.ar    1  UNL1       -0.0003
     33 C         140.8220  144.6967  163.9540 C.ar    1  UNL1       -0.0043
@<TRIPOS>BOND
     1    21    22    1
     2    22    20    1
     3    20    17    1
     4    17    18    2
     5    17    19    2
     6    17    15    1
     7    15    11    1
     8    11    12    1
     9    12    13    1
    10    13     1    1
    11     1     2   ar
    12     2     3   ar
    13     3     4   ar
    14     4     5   ar
    15     5     6   ar
    16     5     7    1
    17     7    27    1
    18    27    28    1
    19    28    29   ar
    20    29    30   ar
    21    30    31   ar
    22    31    32   ar
    23    32    33   ar
    24     7     8    1
    25     8    23    1
    26    23    24    1
    27    24    25    1
    28    25    26    1
    29     8     9    1
    30     9    10    1
    31    13    14    1
    32    14    11    1
    33     6     1   ar
    34    33    28   ar
    35    26    23    1
    36    10     4    1
    37    15    16    1
@<TRIPOS>MOLECULE
*****
 33 37 0 0 0
SMALL
GASTEIGER

@<TRIPOS>ATOM
      1 C         143.5510  141.1060  162.7149 C.ar    1  UNL1        0.0476
      2 C         144.2495  139.7809  162.7934 C.ar    1  UNL1        0.0142
      3 C         144.2220  138.9931  164.0695 C.ar    1  UNL1       -0.0033
      4 C         143.4960  139.5303  165.2671 C.ar    1  UNL1       -0.0260
      5 C         142.7975  140.8554  165.1886 C.ar    1  UNL1       -0.0236
      6 C         142.8250  141.6433  163.9125 C.ar    1  UNL1        0.0100
      7 C         142.0716  141.3927  166.3862 C.3     1  UNL1        0.0410
      8 C         142.0440  140.6049  167.6624 C.3     1  UNL1        0.0621
      9 C         142.7425  139.2797  167.7409 C.3     1  UNL1        0.0210
     10 C         143.4685  138.7424  166.5433 C.3     1  UNL1        0.0274
     11 C         143.6174  143.0080  159.6340 C.3     1  UNL1        0.1145
     12 C         143.4174  143.3421  161.0826 C.3     1  UNL1        0.1099
     13 N         143.5785  141.8939  161.4387 N.pl3   1  UNL1       -0.3045
     14 C         143.7786  141.5599  159.9901 C.3     1  UNL1        0.1099
     15 N         143.6449  143.7959  158.3578 N.3     1  UNL1       -0.1813
     16 H         144.1554  144.6568  158.5543 H       1  UNL1        0.1485
     17 S         142.3598  144.1959  157.6955 S.O2    1  UNL1        0.0408
     18 O         142.2585  142.8360  157.0706 O.2     1  UNL1       -0.1575
     19 O         142.4611  145.5558  158.3203 O.2     1  UNL1       -0.1575
     20 C         141.0748  144.5959  157.0332 C.3     1  UNL1        0.1688
     21 C         139.6184  146.6768  156.4867 C.3     1  UNL1        0.0019
     22 C         140.9358  145.9619  156.4292 C.3     1  UNL1        0.0270
     23 N         141.3181  141.1421  168.8600 N.3     1  UNL1       -0.2735
     24 C         141.6604  142.0907  169.9705 C.3     1  UNL1        0.0735
     25 C         140.2914  141.9019  170.5537 C.3     1  UNL1        0.0346
     26 C         139.9491  140.9535  169.4433 C.3     1  UNL1        0.0735
     27 C         141.3731  142.7178  166.3077 C.3     1  UNL1        0.0320
     28 C         140.0766  142.8393  165.5631 C.ar    1  UNL1       -0.0218
     29 C         139.2621  141.6142  165.2704 C.ar    1  UNL1       -0.0043
     30 C         137.9657  141.7356  164.5258 C.ar    1  UNL1       -0.0003
     31 C         137.4837  143.0823  164.0738 C.ar    1  UNL1       -0.0000
     32 C         138.2982  144.3075  164.3664 C.ar    1  UNL1       -0.0003
     33 C         139.5947  144.1859  165.1111 C.ar    1  UNL1       -0.0043
@<TRIPOS>BOND
     1    21    22    1
     2    22    20    1
     3    20    17    1
     4    17    18    2
     5    17    19    2
     6    17    15    1
     7    15    11    1
     8    11    12    1
     9    12    13    1
    10    13     1    1
    11     1     2   ar
    12     2     3   ar
    13     3     4   ar
    14     4     5   ar
    15     5     6   ar
    16     5     7    1
    17     7    27    1
    18    27    28    1
    19    28    29   ar
    20    29    30   ar
    21    30    31   ar
    22    31    32   ar
    23    32    33   ar
    24     7     8    1
    25     8    23    1
    26    23    24    1
    27    24    25    1
    28    25    26    1
    29     8     9    1
    30     9    10    1
    31    13    14    1
    32    14    11    1
    33     6     1   ar
    34    33    28   ar
    35    26    23    1
    36    10     4    1
    37    15    16    1
@<TRIPOS>MOLECULE
*****
 33 37 0 0 0
SMALL
GASTEIGER

@<TRIPOS>ATOM
      1 C         141.9721  143.7413  162.2666 C.ar    1  UNL1        0.0476
      2 C         143.3941  144.1784  162.4587 C.ar    1  UNL1        0.0142
      3 C         144.0770  143.9520  163.7748 C.ar    1  UNL1       -0.0033
      4 C         143.3380  143.2884  164.8989 C.ar    1  UNL1       -0.0260
      5 C         141.9160  142.8513  164.7068 C.ar    1  UNL1       -0.0236
      6 C         141.2331  143.0778  163.3907 C.ar    1  UNL1        0.0100
      7 C         141.1770  142.1878  165.8309 C.3     1  UNL1        0.0410
      8 C         141.8599  141.9613  167.1470 C.3     1  UNL1        0.0621
      9 C         143.2819  142.3984  167.3392 C.3     1  UNL1        0.0210
     10 C         144.0209  143.0620  166.2151 C.3     1  UNL1        0.0274
     11 C         140.3233  144.2879  159.0890 C.3     1  UNL1        0.1145
     12 C         140.4978  145.0891  160.3451 C.3     1  UNL1        0.1099
     13 N         141.2892  143.9678  160.9504 N.pl3   1  UNL1       -0.3045
     14 C         141.1147  143.1666  159.6943 C.3     1  UNL1        0.1099
     15 N         139.6404  144.5143  157.7729 N.3     1  UNL1       -0.1813
     16 H         139.4761  143.5943  157.3643 H       1  UNL1        0.1485
     17 S         140.3056  145.3451  156.7158 S.O2    1  UNL1        0.0408
     18 O         139.8357  146.5938  157.4014 O.2     1  UNL1       -0.1575
     19 O         140.7756  144.0965  156.0302 O.2     1  UNL1       -0.1575
     20 C         140.9709  146.1758  155.6588 C.3     1  UNL1        0.1688
     21 C         140.1698  148.1026  154.1110 C.3     1  UNL1        0.0019
     22 C         140.1859  146.6464  154.4703 C.3     1  UNL1        0.0270
     23 N         141.1208  141.2978  168.2711 N.3     1  UNL1       -0.2735
     24 C         140.0911  141.7377  169.2692 C.3     1  UNL1        0.0735
     25 C         140.0757  140.3594  169.8607 C.3     1  UNL1        0.0346
     26 C         141.1053  139.9195  168.8627 C.3     1  UNL1        0.0735
     27 C         139.7550  141.7507  165.6388 C.3     1  UNL1        0.0320
     28 C         139.4260  140.2905  165.5400 C.ar    1  UNL1       -0.0218
     29 C         140.1592  139.4210  164.5620 C.ar    1  UNL1       -0.0043
     30 C         139.8303  137.9609  164.4632 C.ar    1  UNL1       -0.0003
     31 C         138.7681  137.3702  165.3424 C.ar    1  UNL1       -0.0000
     32 C         138.0349  138.2396  166.3203 C.ar    1  UNL1       -0.0003
     33 C         138.3639  139.6998  166.4191 C.ar    1  UNL1       -0.0043
@<TRIPOS>BOND
     1    21    22    1
     2    22    20    1
     3    20    17    1
     4    17    18    2
     5    17    19    2
     6    17    15    1
     7    15    11    1
     8    11    12    1
     9    12    13    1
    10    13     1    1
    11     1     2   ar
    12     2     3   ar
    13     3     4   ar
    14     4     5   ar
    15     5     6   ar
    16     5     7    1
    17     7    27    1
    18    27    28    1
    19    28    29   ar
    20    29    30   ar
    21    30    31   ar
    22    31    32   ar
    23    32    33   ar
    24     7     8    1
    25     8    23    1
    26    23    24    1
    27    24    25    1
    28    25    26    1
    29     8     9    1
    30     9    10    1
    31    13    14    1
    32    14    11    1
    33     6     1   ar
    34    33    28   ar
    35    26    23    1
    36    10     4    1
    37    15    16    1
@<TRIPOS>MOLECULE
*****
 33 37 0 0 0
SMALL
GASTEIGER

@<TRIPOS>ATOM
      1 C         139.8982  138.9227  159.0734 C.ar    1  UNL1        0.0476
      2 C         139.0053  140.0223  158.5798 C.ar    1  UNL1        0.0142
      3 C         138.2468  140.8688  159.5587 C.ar    1  UNL1       -0.0033
      4 C         138.3813  140.6157  161.0310 C.ar    1  UNL1       -0.0260
      5 C         139.2742  139.5162  161.5246 C.ar    1  UNL1       -0.0236
      6 C         140.0326  138.6697  160.5457 C.ar    1  UNL1        0.0100
      7 C         139.4087  139.2631  162.9970 C.3     1  UNL1        0.0410
      8 C         138.6502  140.1096  163.9758 C.3     1  UNL1        0.0621
      9 C         137.7572  141.2092  163.4823 C.3     1  UNL1        0.0210
     10 C         137.6228  141.4623  162.0099 C.3     1  UNL1        0.0274
     11 C         141.7294  136.8790  156.7103 C.3     1  UNL1        0.1145
     12 C         140.3050  137.3307  156.8413 C.3     1  UNL1        0.1099
     13 N         140.6567  138.0762  158.0945 N.pl3   1  UNL1       -0.3045
     14 C         142.0811  137.6245  157.9635 C.3     1  UNL1        0.1099
     15 N         142.4879  136.0325  155.7315 N.3     1  UNL1       -0.1813
     16 H         142.0324  136.1491  154.8264 H       1  UNL1        0.1485
     17 S         142.6213  134.5563  155.9622 S.O2    1  UNL1        0.0408
     18 O         141.3389  134.3244  155.2192 O.2     1  UNL1       -0.1575
     19 O         143.9035  134.7882  156.7051 O.2     1  UNL1       -0.1575
     20 C         142.7546  133.0802  156.1928 C.3     1  UNL1        0.1688
     21 C         144.7671  131.4469  156.0136 C.3     1  UNL1        0.0019
     22 C         143.7018  132.2728  155.3556 C.3     1  UNL1        0.0270
     23 N         138.7847  139.8565  165.4482 N.3     1  UNL1       -0.2735
     24 C         138.2081  138.8605  166.4102 C.3     1  UNL1        0.0735
     25 C         138.9748  139.4986  167.5304 C.3     1  UNL1        0.0346
     26 C         139.5514  140.4946  166.5684 C.3     1  UNL1        0.0735
     27 C         140.3016  138.1635  163.4905 C.3     1  UNL1        0.0320
     28 C         141.6961  138.4771  163.9456 C.ar    1  UNL1       -0.0218
     29 C         142.0737  138.2950  165.3858 C.ar    1  UNL1       -0.0043
     30 C         143.4682  138.6085  165.8410 C.ar    1  UNL1       -0.0003
     31 C         144.4850  139.1042  164.8559 C.ar    1  UNL1       -0.0000
     32 C         144.1074  139.2863  163.4157 C.ar    1  UNL1       -0.0003
     33 C         142.7129  138.9727  162.9605 C.ar    1  UNL1       -0.0043
@<TRIPOS>BOND
     1    21    22    1
     2    22    20    1
     3    20    17    1
     4    17    18    2
     5    17    19    2
     6    17    15    1
     7    15    11    1
     8    11    12    1
     9    12    13    1
    10    13     1    1
    11     1     2   ar
    12     2     3   ar
    13     3     4   ar
    14     4     5   ar
    15     5     6   ar
    16     5     7    1
    17     7    27    1
    18    27    28    1
    19    28    29   ar
    20    29    30   ar
    21    30    31   ar
    22    31    32   ar
    23    32    33   ar
    24     7     8    1
    25     8    23    1
    26    23    24    1
    27    24    25    1
    28    25    26    1
    29     8     9    1
    30     9    10    1
    31    13    14    1
    32    14    11    1
    33     6     1   ar
    34    33    28   ar
    35    26    23    1
    36    10     4    1
    37    15    16    1
@<TRIPOS>MOLECULE
*****
 33 37 0 0 0
SMALL
GASTEIGER

@<TRIPOS>ATOM
      1 C         139.1073  140.4190  163.3751 C.ar    1  UNL1        0.0476
      2 C         138.0982  139.4622  163.9372 C.ar    1  UNL1        0.0142
      3 C         138.0566  139.1975  165.4131 C.ar    1  UNL1       -0.0033
      4 C         139.0241  139.8896  166.3268 C.ar    1  UNL1       -0.0260
      5 C         140.0332  140.8465  165.7646 C.ar    1  UNL1       -0.0236
      6 C         140.0748  141.1112  164.2888 C.ar    1  UNL1        0.0100
      7 C         141.0007  141.5386  166.6783 C.3     1  UNL1        0.0410
      8 C         140.9591  141.2739  168.1542 C.3     1  UNL1        0.0621
      9 C         139.9500  140.3170  168.7164 C.3     1  UNL1        0.0210
     10 C         138.9825  139.6248  167.8027 C.3     1  UNL1        0.0274
     11 C         139.2079  141.0581  159.8120 C.3     1  UNL1        0.1145
     12 C         138.6592  141.7838  161.0046 C.3     1  UNL1        0.1099
     13 N         139.1490  140.6838  161.8992 N.pl3   1  UNL1       -0.3045
     14 C         139.6976  139.9581  160.7065 C.3     1  UNL1        0.1099
     15 N         139.2496  141.3228  158.3361 N.3     1  UNL1       -0.1813
     16 H         139.5819  142.2799  158.2179 H       1  UNL1        0.1485
     17 S         138.0006  141.1937  157.5154 S.O2    1  UNL1        0.0408
     18 O         137.7053  142.6477  157.7360 O.2     1  UNL1       -0.1575
     19 O         138.2959  139.7397  157.2948 O.2     1  UNL1       -0.1575
     20 C         136.7517  141.0645  156.6947 C.3     1  UNL1        0.1688
     21 C         137.3668  141.8036  154.2812 C.3     1  UNL1        0.0019
     22 C         136.5319  141.9666  155.5166 C.3     1  UNL1        0.0270
     23 N         141.9266  141.9661  169.0679 N.3     1  UNL1       -0.2735
     24 C         143.3592  141.7494  169.4564 C.3     1  UNL1        0.0735
     25 C         143.2949  142.9449  170.3600 C.3     1  UNL1        0.0346
     26 C         141.8624  143.1616  169.9716 C.3     1  UNL1        0.0735
     27 C         142.0098  142.4955  166.1162 C.3     1  UNL1        0.0320
     28 C         143.2048  141.9749  165.3737 C.ar    1  UNL1       -0.0218
     29 C         144.1394  142.9303  164.6929 C.ar    1  UNL1       -0.0043
     30 C         145.3343  142.4098  163.9504 C.ar    1  UNL1       -0.0003
     31 C         145.5946  140.9337  163.8888 C.ar    1  UNL1       -0.0000
     32 C         144.6599  139.9783  164.5697 C.ar    1  UNL1       -0.0003
     33 C         143.4650  140.4989  165.3121 C.ar    1  UNL1       -0.0043
@<TRIPOS>BOND
     1    21    22    1
     2    22    20    1
     3    20    17    1
     4    17    18    2
     5    17    19    2
     6    17    15    1
     7    15    11    1
     8    11    12    1
     9    12    13    1
    10    13     1    1
    11     1     2   ar
    12     2     3   ar
    13     3     4   ar
    14     4     5   ar
    15     5     6   ar
    16     5     7    1
    17     7    27    1
    18    27    28    1
    19    28    29   ar
    20    29    30   ar
    21    30    31   ar
    22    31    32   ar
    23    32    33   ar
    24     7     8    1
    25     8    23    1
    26    23    24    1
    27    24    25    1
    28    25    26    1
    29     8     9    1
    30     9    10    1
    31    13    14    1
    32    14    11    1
    33     6     1   ar
    34    33    28   ar
    35    26    23    1
    36    10     4    1
    37    15    16    1
