@<TRIPOS>MOLECULE
*****
 36 40 0 0 0
SMALL
GASTEIGER

@<TRIPOS>ATOM
      1 C         141.4893  145.6770  158.3636 C.2     1  UNL1       -0.0244
      2 C         141.2139  145.3702  159.8058 C.2     1  UNL1        0.0012
      3 C         141.0589  144.5869  161.0756 C.3     1  UNL1        0.1685
      4 O         141.0430  143.4214  162.0198 O.3     1  UNL1       -0.3442
      5 C         141.1682  142.0145  162.5245 C.3     1  UNL1        0.1721
      6 C         141.4194  140.5357  162.5288 C.ar    1  UNL1        0.0425
      7 C         141.7663  139.1634  162.0323 C.ar    1  UNL1        0.0158
      8 C         142.1669  138.0632  161.0948 C.ar    1  UNL1        0.0504
      9 C         141.9218  137.5780  162.5375 C.ar    1  UNL1        0.0178
     10 C         141.5156  138.2736  163.8030 C.ar    1  UNL1        0.0379
     11 C         141.2644  139.7523  163.7986 C.ar    1  UNL1        0.1370
     12 N         142.5731  137.3677  159.8293 N.pl3   1  UNL1       -0.2825
     13 C         142.9877  137.2923  158.0615 C.ar    1  UNL1        0.2207
     14 N         143.3346  135.9200  157.5650 N.ar    1  UNL1       -0.2120
     15 C         143.6973  135.7132  156.1243 C.ar    1  UNL1        0.1034
     16 C         143.7131  136.8787  155.1801 C.ar    1  UNL1        0.0399
     17 C         143.3663  138.2509  155.6766 C.ar    1  UNL1        0.0859
     18 N         143.0036  138.4577  157.1173 N.ar    1  UNL1       -0.2135
     19 C         143.3821  139.4164  154.7324 C.ar    1  UNL1        0.0240
     20 C         143.6994  139.5576  153.2303 C.ar    1  UNL1        0.0224
     21 C         143.7153  140.7230  152.2861 C.ar    1  UNL1        0.1021
     22 N         143.3684  142.0953  152.7827 N.ar    1  UNL1       -0.2101
     23 C         143.0057  142.3021  154.2234 C.ar    1  UNL1        0.2249
     24 C         143.2569  140.8233  154.2277 C.ar    1  UNL1        0.0592
     25 O         142.6589  143.6744  154.7199 O.3     1  UNL1       -0.4599
     26 C         142.2582  144.7747  155.6574 C.3     1  UNL1        0.2117
     27 C         141.8520  145.4702  156.9229 C.3     1  UNL1        0.0731
     28 H         142.6678  136.4306  160.1159 H       1  UNL1        0.1551
     29 O         140.8582  140.4479  165.0641 O.3     1  UNL1       -0.4742
     30 C         139.4579  140.3046  165.5823 C.3     1  UNL1        0.2226
     31 C         138.3040  140.8288  164.7800 C.3     1  UNL1        0.1200
     32 N         138.2696  142.2714  164.3701 N.3     1  UNL1       -0.2696
     33 C         138.9111  143.4119  165.1034 C.3     1  UNL1        0.0722
     34 C         138.6255  144.6720  164.3415 C.3     1  UNL1        0.0188
     35 C         137.8075  144.3103  163.1373 C.3     1  UNL1        0.0188
     36 C         137.5875  142.8266  163.1550 C.3     1  UNL1        0.0722
@<TRIPOS>BOND
     1     1     2    2
     2     2     3    1
     3     3     4    1
     4     4     5    1
     5     5     6    1
     6     6     7   ar
     7     7     8   ar
     8     8     9   ar
     9     9    10   ar
    10    10    11   ar
    11    11    29    1
    12    29    30    1
    13    30    31    1
    14    31    32    1
    15    32    33    1
    16    33    34    1
    17    34    35    1
    18    35    36    1
    19     8    12    1
    20    12    13    1
    21    13    14   ar
    22    14    15   ar
    23    15    16   ar
    24    16    17   ar
    25    17    18   ar
    26    17    19    1
    27    19    20   ar
    28    20    21   ar
    29    21    22   ar
    30    22    23   ar
    31    23    24   ar
    32    23    25    1
    33    25    26    1
    34    26    27    1
    35    27     1    1
    36    11     6   ar
    37    36    32    1
    38    18    13   ar
    39    24    19   ar
    40    12    28    1
@<TRIPOS>MOLECULE
*****
 36 40 0 0 0
SMALL
GASTEIGER

@<TRIPOS>ATOM
      1 C         139.9639  145.8860  160.7501 C.2     1  UNL1       -0.0244
      2 C         139.7339  145.2505  162.0892 C.2     1  UNL1        0.0012
      3 C         139.6785  144.2030  163.1615 C.3     1  UNL1        0.1685
      4 O         139.8044  142.8700  163.8375 O.3     1  UNL1       -0.3442
      5 C         140.0963  141.4121  164.0359 C.3     1  UNL1        0.1721
      6 C         140.5192  140.0052  163.7326 C.ar    1  UNL1        0.0425
      7 C         141.0218  138.8191  162.9643 C.ar    1  UNL1        0.0158
      8 C         141.5437  137.9967  161.8236 C.ar    1  UNL1        0.0504
      9 C         141.3648  137.1915  163.1260 C.ar    1  UNL1        0.0178
     10 C         140.8866  137.5510  164.5016 C.ar    1  UNL1        0.0379
     11 C         140.4638  138.9578  164.8049 C.ar    1  UNL1        0.1370
     12 N         142.0219  137.6373  160.4479 N.pl3   1  UNL1       -0.2825
     13 C         142.4331  137.9872  158.7126 C.ar    1  UNL1        0.2207
     14 N         142.9358  136.8011  157.9443 N.ar    1  UNL1       -0.2120
     15 C         143.3126  136.9480  156.4999 C.ar    1  UNL1        0.1034
     16 C         143.1867  138.2811  155.8238 C.ar    1  UNL1        0.0399
     17 C         142.6841  139.4672  156.5921 C.ar    1  UNL1        0.0859
     18 N         142.3073  139.3203  158.0365 N.ar    1  UNL1       -0.2135
     19 C         142.5582  140.8003  155.9160 C.ar    1  UNL1        0.0240
     20 C         142.8488  141.2927  154.4842 C.ar    1  UNL1        0.0224
     21 C         142.7229  142.6258  153.8081 C.ar    1  UNL1        0.1021
     22 N         142.2202  143.8119  154.5765 N.ar    1  UNL1       -0.2101
     23 C         141.8434  143.6650  156.0209 C.ar    1  UNL1        0.2249
     24 C         142.2663  142.2581  155.7177 C.ar    1  UNL1        0.0592
     25 O         141.3408  144.8511  156.7893 O.3     1  UNL1       -0.4599
     26 C         140.8188  145.6736  157.9301 C.3     1  UNL1        0.2117
     27 C         140.3407  146.0329  159.3057 C.3     1  UNL1        0.0731
     28 H         142.2273  136.6781  160.5318 H       1  UNL1        0.1551
     29 O         139.9856  139.3172  166.1805 O.3     1  UNL1       -0.4742
     30 C         140.9342  139.9294  167.1682 C.3     1  UNL1        0.2226
     31 C         142.3804  139.5316  167.1646 C.3     1  UNL1        0.1200
     32 N         143.2743  139.9637  166.0401 N.3     1  UNL1       -0.2696
     33 C         143.4755  141.3722  165.5651 C.3     1  UNL1        0.0722
     34 C         144.4494  141.3421  164.4247 C.3     1  UNL1        0.0188
     35 C         144.8501  139.9150  164.1948 C.3     1  UNL1        0.0188
     36 C         144.1238  139.0631  165.1933 C.3     1  UNL1        0.0722
@<TRIPOS>BOND
     1     1     2    2
     2     2     3    1
     3     3     4    1
     4     4     5    1
     5     5     6    1
     6     6     7   ar
     7     7     8   ar
     8     8     9   ar
     9     9    10   ar
    10    10    11   ar
    11    11    29    1
    12    29    30    1
    13    30    31    1
    14    31    32    1
    15    32    33    1
    16    33    34    1
    17    34    35    1
    18    35    36    1
    19     8    12    1
    20    12    13    1
    21    13    14   ar
    22    14    15   ar
    23    15    16   ar
    24    16    17   ar
    25    17    18   ar
    26    17    19    1
    27    19    20   ar
    28    20    21   ar
    29    21    22   ar
    30    22    23   ar
    31    23    24   ar
    32    23    25    1
    33    25    26    1
    34    26    27    1
    35    27     1    1
    36    11     6   ar
    37    36    32    1
    38    18    13   ar
    39    24    19   ar
    40    12    28    1
@<TRIPOS>MOLECULE
*****
 36 40 0 0 0
SMALL
GASTEIGER

@<TRIPOS>ATOM
      1 C         139.2726  145.2862  155.8770 C.2     1  UNL1       -0.0244
      2 C         139.9912  145.6711  157.1362 C.2     1  UNL1        0.0012
      3 C         140.8359  145.5510  158.3698 C.3     1  UNL1        0.1685
      4 O         141.7048  144.9407  159.4293 O.3     1  UNL1       -0.3442
      5 C         142.4931  143.9137  160.1867 C.3     1  UNL1        0.1721
      6 C         143.1057  142.5937  160.5508 C.ar    1  UNL1        0.0425
      7 C         143.4687  141.1402  160.4776 C.ar    1  UNL1        0.0158
      8 C         143.5384  139.7283  159.9759 C.ar    1  UNL1        0.0504
      9 C         144.3309  139.9539  161.2788 C.ar    1  UNL1        0.0178
     10 C         144.5630  141.1539  162.1486 C.ar    1  UNL1        0.0379
     11 C         143.9504  142.4737  161.7845 C.ar    1  UNL1        0.1370
     12 N         143.3063  138.5283  159.1061 N.pl3   1  UNL1       -0.2825
     13 C         142.6119  137.6532  157.6727 C.ar    1  UNL1        0.2207
     14 N         142.9749  136.1997  157.5995 N.ar    1  UNL1       -0.2120
     15 C         142.4691  135.3565  156.4668 C.ar    1  UNL1        0.1034
     16 C         141.6002  135.9668  155.4073 C.ar    1  UNL1        0.0399
     17 C         141.2371  137.4203  155.4805 C.ar    1  UNL1        0.0859
     18 N         141.7430  138.2635  156.6132 N.ar    1  UNL1       -0.2135
     19 C         140.3682  138.0307  154.4210 C.ar    1  UNL1        0.0240
     20 C         139.6934  137.4705  153.1530 C.ar    1  UNL1        0.0224
     21 C         138.8245  138.0809  152.0936 C.ar    1  UNL1        0.1021
     22 N         138.4614  139.5345  152.1668 N.ar    1  UNL1       -0.2101
     23 C         138.9673  140.3777  153.2996 C.ar    1  UNL1        0.2249
     24 C         139.5799  139.0577  153.6636 C.ar    1  UNL1        0.0592
     25 O         138.6043  141.8312  153.3728 O.3     1  UNL1       -0.4599
     26 C         138.5346  143.2432  153.8746 C.3     1  UNL1        0.2117
     27 C         138.7667  144.4430  154.7442 C.3     1  UNL1        0.0731
     28 H         143.8110  137.8216  159.5699 H       1  UNL1        0.1551
     29 O         144.1825  143.6737  162.6542 O.3     1  UNL1       -0.4742
     30 C         143.2303  143.9865  163.7703 C.3     1  UNL1        0.2226
     31 C         142.2711  145.1322  163.6386 C.3     1  UNL1        0.1200
     32 N         140.7937  144.8739  163.6100 N.3     1  UNL1       -0.2696
     33 C         139.9831  144.2677  164.7168 C.3     1  UNL1        0.0722
     34 C         138.5561  144.1956  164.2602 C.3     1  UNL1        0.0188
     35 C         138.4848  144.7573  162.8712 C.3     1  UNL1        0.0188
     36 C         139.8678  145.1766  162.4693 C.3     1  UNL1        0.0722
@<TRIPOS>BOND
     1     1     2    2
     2     2     3    1
     3     3     4    1
     4     4     5    1
     5     5     6    1
     6     6     7   ar
     7     7     8   ar
     8     8     9   ar
     9     9    10   ar
    10    10    11   ar
    11    11    29    1
    12    29    30    1
    13    30    31    1
    14    31    32    1
    15    32    33    1
    16    33    34    1
    17    34    35    1
    18    35    36    1
    19     8    12    1
    20    12    13    1
    21    13    14   ar
    22    14    15   ar
    23    15    16   ar
    24    16    17   ar
    25    17    18   ar
    26    17    19    1
    27    19    20   ar
    28    20    21   ar
    29    21    22   ar
    30    22    23   ar
    31    23    24   ar
    32    23    25    1
    33    25    26    1
    34    26    27    1
    35    27     1    1
    36    11     6   ar
    37    36    32    1
    38    18    13   ar
    39    24    19   ar
    40    12    28    1
@<TRIPOS>MOLECULE
*****
 36 40 0 0 0
SMALL
GASTEIGER

@<TRIPOS>ATOM
      1 C         142.7954  137.2982  159.2146 C.2     1  UNL1       -0.0244
      2 C         142.8282  137.7391  160.6480 C.2     1  UNL1        0.0012
      3 C         142.7055  138.6223  161.8541 C.3     1  UNL1        0.1685
      4 O         142.4420  139.8412  162.6876 O.3     1  UNL1       -0.3442
      5 C         142.0696  141.2488  163.0480 C.3     1  UNL1        0.1721
      6 C         141.6331  142.6754  162.8917 C.ar    1  UNL1        0.0425
      7 C         141.1852  143.9488  162.2377 C.ar    1  UNL1        0.0158
      8 C         140.7800  144.9155  161.1647 C.ar    1  UNL1        0.0504
      9 C         140.7601  145.5285  162.5791 C.ar    1  UNL1        0.0178
     10 C         141.0739  144.9851  163.9416 C.ar    1  UNL1        0.0379
     11 C         141.5103  143.5586  164.0978 C.ar    1  UNL1        0.1370
     12 N         140.4662  145.4589  159.8021 N.pl3   1  UNL1       -0.2825
     13 C         140.2927  145.3537  157.9961 C.ar    1  UNL1        0.2207
     14 N         139.8449  146.6271  157.3421 N.ar    1  UNL1       -0.2120
     15 C         139.6605  146.6815  155.8545 C.ar    1  UNL1        0.1034
     16 C         139.9240  145.4626  155.0210 C.ar    1  UNL1        0.0399
     17 C         140.3718  144.1892  155.6750 C.ar    1  UNL1        0.0859
     18 N         140.5562  144.1347  157.1626 N.ar    1  UNL1       -0.2135
     19 C         140.6353  142.9703  154.8415 C.ar    1  UNL1        0.0240
     20 C         140.5485  142.6829  153.3292 C.ar    1  UNL1        0.0224
     21 C         140.8120  141.4640  152.4957 C.ar    1  UNL1        0.1021
     22 N         141.2598  140.1906  153.1498 N.ar    1  UNL1       -0.2101
     23 C         141.4442  140.1361  154.6374 C.ar    1  UNL1        0.2249
     24 C         141.0077  141.5627  154.4811 C.ar    1  UNL1        0.0592
     25 O         141.8921  138.8627  155.2914 O.3     1  UNL1       -0.4599
     26 C         142.2973  137.8959  156.3645 C.3     1  UNL1        0.2117
     27 C         142.6110  137.3526  157.7270 C.3     1  UNL1        0.0731
     28 H         140.2139  146.3914  159.9917 H       1  UNL1        0.1551
     29 O         141.8241  143.0152  165.4604 O.3     1  UNL1       -0.4742
     30 C         140.7143  142.7358  166.4302 C.3     1  UNL1        0.2226
     31 C         139.8367  141.5344  166.2396 C.3     1  UNL1        0.1200
     32 N         138.9293  141.4499  165.0481 N.3     1  UNL1       -0.2696
     33 C         138.1087  142.5713  164.4836 C.3     1  UNL1        0.0722
     34 C         137.3555  142.0436  163.2986 C.3     1  UNL1        0.0188
     35 C         137.7108  140.5959  163.1307 C.3     1  UNL1        0.0188
     36 C         138.6835  140.2290  164.2120 C.3     1  UNL1        0.0722
@<TRIPOS>BOND
     1     1     2    2
     2     2     3    1
     3     3     4    1
     4     4     5    1
     5     5     6    1
     6     6     7   ar
     7     7     8   ar
     8     8     9   ar
     9     9    10   ar
    10    10    11   ar
    11    11    29    1
    12    29    30    1
    13    30    31    1
    14    31    32    1
    15    32    33    1
    16    33    34    1
    17    34    35    1
    18    35    36    1
    19     8    12    1
    20    12    13    1
    21    13    14   ar
    22    14    15   ar
    23    15    16   ar
    24    16    17   ar
    25    17    18   ar
    26    17    19    1
    27    19    20   ar
    28    20    21   ar
    29    21    22   ar
    30    22    23   ar
    31    23    24   ar
    32    23    25    1
    33    25    26    1
    34    26    27    1
    35    27     1    1
    36    11     6   ar
    37    36    32    1
    38    18    13   ar
    39    24    19   ar
    40    12    28    1
@<TRIPOS>MOLECULE
*****
 36 40 0 0 0
SMALL
GASTEIGER

@<TRIPOS>ATOM
      1 C         140.1298  145.9731  161.1924 C.2     1  UNL1       -0.0244
      2 C         140.2203  145.4663  162.6013 C.2     1  UNL1        0.0012
      3 C         140.4463  144.5289  163.7502 C.3     1  UNL1        0.1685
      4 O         140.7808  143.2739  164.5007 O.3     1  UNL1       -0.3442
      5 C         141.1831  141.8527  164.7621 C.3     1  UNL1        0.1721
      6 C         141.6050  140.4368  164.5030 C.ar    1  UNL1        0.0425
      7 C         141.9954  139.1968  163.7546 C.ar    1  UNL1        0.0158
      8 C         142.3073  138.2825  162.6072 C.ar    1  UNL1        0.0504
      9 C         142.4487  137.6049  163.9847 C.ar    1  UNL1        0.0178
     10 C         142.2529  138.0834  165.3929 C.ar    1  UNL1        0.0379
     11 C         141.8311  139.4993  165.6519 C.ar    1  UNL1        0.1370
     12 N         142.5031  137.8039  161.1990 N.pl3   1  UNL1       -0.2825
     13 C         142.5209  137.9932  159.3916 C.ar    1  UNL1        0.2207
     14 N         142.9113  136.7533  158.6432 N.ar    1  UNL1       -0.2120
     15 C         142.9673  136.7683  157.1444 C.ar    1  UNL1        0.1034
     16 C         142.6329  138.0233  156.3939 C.ar    1  UNL1        0.0399
     17 C         142.2425  139.2632  157.1423 C.ar    1  UNL1        0.0859
     18 N         142.1865  139.2482  158.6412 N.ar    1  UNL1       -0.2135
     19 C         141.9081  140.5182  156.3919 C.ar    1  UNL1        0.0240
     20 C         141.8647  140.8754  154.8927 C.ar    1  UNL1        0.0224
     21 C         141.5303  142.1304  154.1422 C.ar    1  UNL1        0.1021
     22 N         141.1399  143.3704  154.8907 N.ar    1  UNL1       -0.2101
     23 C         141.0839  143.3553  156.3896 C.ar    1  UNL1        0.2249
     24 C         141.5057  141.9393  156.1304 C.ar    1  UNL1        0.0592
     25 O         140.6934  144.5952  157.1379 O.3     1  UNL1       -0.4599
     26 C         140.3815  145.5097  158.2855 C.3     1  UNL1        0.2117
     27 C         140.1858  145.9882  159.6935 C.3     1  UNL1        0.0731
     28 H         142.7710  136.8647  161.3228 H       1  UNL1        0.1551
     29 O         141.6353  139.9779  167.0601 O.3     1  UNL1       -0.4742
     30 C         142.5712  139.5272  168.1423 C.3     1  UNL1        0.2226
     31 C         142.5374  140.1906  169.4872 C.3     1  UNL1        0.1200
     32 N         141.6199  141.3527  169.7273 N.3     1  UNL1       -0.2696
     33 C         141.8668  142.7720  169.3093 C.3     1  UNL1        0.0722
     34 C         140.6939  143.5960  169.7512 C.3     1  UNL1        0.0188
     35 C         139.7221  142.6860  170.4424 C.3     1  UNL1        0.0188
     36 C         140.2944  141.2996  170.4276 C.3     1  UNL1        0.0722
@<TRIPOS>BOND
     1     1     2    2
     2     2     3    1
     3     3     4    1
     4     4     5    1
     5     5     6    1
     6     6     7   ar
     7     7     8   ar
     8     8     9   ar
     9     9    10   ar
    10    10    11   ar
    11    11    29    1
    12    29    30    1
    13    30    31    1
    14    31    32    1
    15    32    33    1
    16    33    34    1
    17    34    35    1
    18    35    36    1
    19     8    12    1
    20    12    13    1
    21    13    14   ar
    22    14    15   ar
    23    15    16   ar
    24    16    17   ar
    25    17    18   ar
    26    17    19    1
    27    19    20   ar
    28    20    21   ar
    29    21    22   ar
    30    22    23   ar
    31    23    24   ar
    32    23    25    1
    33    25    26    1
    34    26    27    1
    35    27     1    1
    36    11     6   ar
    37    36    32    1
    38    18    13   ar
    39    24    19   ar
    40    12    28    1
@<TRIPOS>MOLECULE
*****
 36 40 0 0 0
SMALL
GASTEIGER

@<TRIPOS>ATOM
      1 C         142.6410  137.2986  159.7797 C.2     1  UNL1       -0.0244
      2 C         142.2384  137.6652  161.1774 C.2     1  UNL1        0.0012
      3 C         141.7303  138.4793  162.3302 C.3     1  UNL1        0.1685
      4 O         141.1780  139.6428  163.0991 O.3     1  UNL1       -0.3442
      5 C         140.6480  141.0152  163.3914 C.3     1  UNL1        0.1721
      6 C         140.2042  142.4312  163.1717 C.ar    1  UNL1        0.0425
      7 C         139.9003  143.7197  162.4667 C.ar    1  UNL1        0.0158
      8 C         139.7728  144.7256  161.3612 C.ar    1  UNL1        0.0504
      9 C         139.3167  145.2630  162.7323 C.ar    1  UNL1        0.0178
     10 C         139.2523  144.6612  164.1049 C.ar    1  UNL1        0.0379
     11 C         139.6961  143.2453  164.3245 C.ar    1  UNL1        0.1370
     12 N         139.8372  145.3274  159.9887 N.pl3   1  UNL1       -0.2825
     13 C         140.1955  145.3101  158.2071 C.ar    1  UNL1        0.2207
     14 N         139.8916  146.5987  157.5020 N.ar    1  UNL1       -0.2120
     15 C         140.1400  146.7238  156.0281 C.ar    1  UNL1        0.1034
     16 C         140.6924  145.5604  155.2592 C.ar    1  UNL1        0.0399
     17 C         140.9963  144.2718  155.9642 C.ar    1  UNL1        0.0859
     18 N         140.7479  144.1467  157.4382 N.ar    1  UNL1       -0.2135
     19 C         141.5487  143.1083  155.1953 C.ar    1  UNL1        0.0240
     20 C         141.9146  142.8971  153.7126 C.ar    1  UNL1        0.0224
     21 C         142.4670  141.7337  152.9436 C.ar    1  UNL1        0.1021
     22 N         142.7709  140.4450  153.6488 N.ar    1  UNL1       -0.2101
     23 C         142.5225  140.3199  155.1227 C.ar    1  UNL1        0.2249
     24 C         142.0787  141.7359  154.9031 C.ar    1  UNL1        0.0592
     25 O         142.8264  139.0313  155.8278 O.3     1  UNL1       -0.4599
     26 C         142.9539  138.0254  156.9333 C.3     1  UNL1        0.2117
     27 C         142.8895  137.4237  158.3058 C.3     1  UNL1        0.0731
     28 H         139.4948  146.2390  160.1337 H       1  UNL1        0.1551
     29 O         139.6317  142.6435  165.6970 O.3     1  UNL1       -0.4742
     30 C         140.6992  142.9556  166.7037 C.3     1  UNL1        0.2226
     31 C         141.8946  142.0587  166.8316 C.3     1  UNL1        0.1200
     32 N         142.9466  142.0543  165.7623 N.3     1  UNL1       -0.2696
     33 C         143.4099  143.2449  164.9763 C.3     1  UNL1        0.0722
     34 C         144.4696  142.7848  164.0196 C.3     1  UNL1        0.0188
     35 C         144.6613  141.3099  164.2142 C.3     1  UNL1        0.0188
     36 C         143.7199  140.8584  165.2913 C.3     1  UNL1        0.0722
@<TRIPOS>BOND
     1     1     2    2
     2     2     3    1
     3     3     4    1
     4     4     5    1
     5     5     6    1
     6     6     7   ar
     7     7     8   ar
     8     8     9   ar
     9     9    10   ar
    10    10    11   ar
    11    11    29    1
    12    29    30    1
    13    30    31    1
    14    31    32    1
    15    32    33    1
    16    33    34    1
    17    34    35    1
    18    35    36    1
    19     8    12    1
    20    12    13    1
    21    13    14   ar
    22    14    15   ar
    23    15    16   ar
    24    16    17   ar
    25    17    18   ar
    26    17    19    1
    27    19    20   ar
    28    20    21   ar
    29    21    22   ar
    30    22    23   ar
    31    23    24   ar
    32    23    25    1
    33    25    26    1
    34    26    27    1
    35    27     1    1
    36    11     6   ar
    37    36    32    1
    38    18    13   ar
    39    24    19   ar
    40    12    28    1
@<TRIPOS>MOLECULE
*****
 36 40 0 0 0
SMALL
GASTEIGER

@<TRIPOS>ATOM
      1 C         140.2108  145.9816  159.4933 C.2     1  UNL1       -0.0244
      2 C         140.3035  145.5614  160.9303 C.2     1  UNL1        0.0012
      3 C         140.5405  144.6983  162.1339 C.3     1  UNL1        0.1685
      4 O         140.8931  143.4964  162.9592 O.3     1  UNL1       -0.3442
      5 C         141.3188  142.1007  163.3065 C.3     1  UNL1        0.1721
      6 C         141.7663  140.6794  163.1339 C.ar    1  UNL1        0.0425
      7 C         142.1815  139.4041  162.4623 C.ar    1  UNL1        0.0158
      8 C         142.5145  138.4285  161.3727 C.ar    1  UNL1        0.0504
      9 C         142.6612  137.8369  162.7887 C.ar    1  UNL1        0.0178
     10 C         142.4507  138.3951  164.1651 C.ar    1  UNL1        0.0379
     11 C         142.0032  139.8163  164.3376 C.ar    1  UNL1        0.1370
     12 N         142.7250  137.8703  159.9963 N.pl3   1  UNL1       -0.2825
     13 C         142.7479  137.9517  158.1809 C.ar    1  UNL1        0.2207
     14 N         143.1631  136.6764  157.5093 N.ar    1  UNL1       -0.2120
     15 C         143.2258  136.6030  156.0125 C.ar    1  UNL1        0.1034
     16 C         142.8732  137.8049  155.1872 C.ar    1  UNL1        0.0399
     17 C         142.4579  139.0802  155.8588 C.ar    1  UNL1        0.0859
     18 N         142.3953  139.1536  157.3556 N.ar    1  UNL1       -0.2135
     19 C         142.1053  140.2821  155.0335 C.ar    1  UNL1        0.0240
     20 C         142.0626  140.5484  153.5155 C.ar    1  UNL1        0.0224
     21 C         141.7100  141.7504  152.6903 C.ar    1  UNL1        0.1021
     22 N         141.2948  143.0257  153.3619 N.ar    1  UNL1       -0.2101
     23 C         141.2321  143.0991  154.8588 C.ar    1  UNL1        0.2249
     24 C         141.6796  141.6778  154.6862 C.ar    1  UNL1        0.0592
     25 O         140.8169  144.3744  155.5304 O.3     1  UNL1       -0.4599
     26 C         140.4839  145.3501  156.6201 C.3     1  UNL1        0.2117
     27 C         140.2734  145.9082  157.9964 C.3     1  UNL1        0.0731
     28 H         143.0085  136.9450  160.1770 H       1  UNL1        0.1551
     29 O         141.7927  140.3745  165.7139 O.3     1  UNL1       -0.4742
     30 C         140.7631  139.7672  166.6201 C.3     1  UNL1        0.2226
     31 C         139.3203  139.7497  166.2104 C.3     1  UNL1        0.1200
     32 N         138.9287  139.2084  164.8674 N.3     1  UNL1       -0.2696
     33 C         139.0341  137.7780  164.4284 C.3     1  UNL1        0.0722
     34 C         138.5335  137.6881  163.0173 C.3     1  UNL1        0.0188
     35 C         138.1186  139.0630  162.5841 C.3     1  UNL1        0.0188
     36 C         138.3628  140.0026  163.7276 C.3     1  UNL1        0.0722
@<TRIPOS>BOND
     1     1     2    2
     2     2     3    1
     3     3     4    1
     4     4     5    1
     5     5     6    1
     6     6     7   ar
     7     7     8   ar
     8     8     9   ar
     9     9    10   ar
    10    10    11   ar
    11    11    29    1
    12    29    30    1
    13    30    31    1
    14    31    32    1
    15    32    33    1
    16    33    34    1
    17    34    35    1
    18    35    36    1
    19     8    12    1
    20    12    13    1
    21    13    14   ar
    22    14    15   ar
    23    15    16   ar
    24    16    17   ar
    25    17    18   ar
    26    17    19    1
    27    19    20   ar
    28    20    21   ar
    29    21    22   ar
    30    22    23   ar
    31    23    24   ar
    32    23    25    1
    33    25    26    1
    34    26    27    1
    35    27     1    1
    36    11     6   ar
    37    36    32    1
    38    18    13   ar
    39    24    19   ar
    40    12    28    1
@<TRIPOS>MOLECULE
*****
 36 40 0 0 0
SMALL
GASTEIGER

@<TRIPOS>ATOM
      1 C         139.6464  145.4667  156.5041 C.2     1  UNL1       -0.0244
      2 C         140.3568  145.7135  157.8019 C.2     1  UNL1        0.0012
      3 C         141.1681  145.4532  159.0364 C.3     1  UNL1        0.1685
      4 O         141.9825  144.7172  160.0586 O.3     1  UNL1       -0.3442
      5 C         142.7017  143.5942  160.7453 C.3     1  UNL1        0.1721
      6 C         143.2391  142.2197  161.0136 C.ar    1  UNL1        0.0425
      7 C         143.5298  140.7595  160.8312 C.ar    1  UNL1        0.0158
      8 C         143.5387  139.3897  160.2201 C.ar    1  UNL1        0.0504
      9 C         144.3139  139.4707  161.5502 C.ar    1  UNL1        0.0178
     10 C         144.5878  140.5849  162.5165 C.ar    1  UNL1        0.0379
     11 C         144.0504  141.9594  162.2481 C.ar    1  UNL1        0.1370
     12 N         143.2647  138.2754  159.2538 N.pl3   1  UNL1       -0.2825
     13 C         142.5574  137.5529  157.7437 C.ar    1  UNL1        0.2207
     14 N         142.8481  136.0927  157.5613 N.ar    1  UNL1       -0.2120
     15 C         142.3243  135.3686  156.3567 C.ar    1  UNL1        0.1034
     16 C         141.5099  136.1046  155.3344 C.ar    1  UNL1        0.0399
     17 C         141.2192  137.5648  155.5168 C.ar    1  UNL1        0.0859
     18 N         141.7430  138.2889  156.7215 N.ar    1  UNL1       -0.2135
     19 C         140.4048  138.3008  154.4946 C.ar    1  UNL1        0.0240
     20 C         139.7295  137.8778  153.1747 C.ar    1  UNL1        0.0224
     21 C         138.9151  138.6139  152.1525 C.ar    1  UNL1        0.1021
     22 N         138.6244  140.0742  152.3349 N.ar    1  UNL1       -0.2101
     23 C         139.1482  140.7983  153.5396 C.ar    1  UNL1        0.2249
     24 C         139.6856  139.4238  153.8079 C.ar    1  UNL1        0.0592
     25 O         138.8575  142.2585  153.7220 O.3     1  UNL1       -0.4599
     26 C         138.8486  143.6284  154.3332 C.3     1  UNL1        0.2117
     27 C         139.1226  144.7426  155.2994 C.3     1  UNL1        0.0731
     28 H         143.7232  137.5092  159.6685 H       1  UNL1        0.1551
     29 O         144.3244  143.0736  163.2143 O.3     1  UNL1       -0.4742
     30 C         143.4146  143.2900  164.3872 C.3     1  UNL1        0.2226
     31 C         142.0708  142.6246  164.4266 C.3     1  UNL1        0.1200
     32 N         141.8606  141.4092  165.2802 N.3     1  UNL1       -0.2696
     33 C         142.9382  140.5397  165.8569 C.3     1  UNL1        0.0722
     34 C         142.2794  139.4431  166.6401 C.3     1  UNL1        0.0188
     35 C         140.7945  139.6349  166.5474 C.3     1  UNL1        0.0188
     36 C         140.5357  140.8501  165.7070 C.3     1  UNL1        0.0722
@<TRIPOS>BOND
     1     1     2    2
     2     2     3    1
     3     3     4    1
     4     4     5    1
     5     5     6    1
     6     6     7   ar
     7     7     8   ar
     8     8     9   ar
     9     9    10   ar
    10    10    11   ar
    11    11    29    1
    12    29    30    1
    13    30    31    1
    14    31    32    1
    15    32    33    1
    16    33    34    1
    17    34    35    1
    18    35    36    1
    19     8    12    1
    20    12    13    1
    21    13    14   ar
    22    14    15   ar
    23    15    16   ar
    24    16    17   ar
    25    17    18   ar
    26    17    19    1
    27    19    20   ar
    28    20    21   ar
    29    21    22   ar
    30    22    23   ar
    31    23    24   ar
    32    23    25    1
    33    25    26    1
    34    26    27    1
    35    27     1    1
    36    11     6   ar
    37    36    32    1
    38    18    13   ar
    39    24    19   ar
    40    12    28    1
@<TRIPOS>MOLECULE
*****
 36 40 0 0 0
SMALL
GASTEIGER

@<TRIPOS>ATOM
      1 C         142.8921  137.3027  159.5977 C.2     1  UNL1       -0.0244
      2 C         142.8546  137.7929  161.0149 C.2     1  UNL1        0.0012
      3 C         142.6656  138.7148  162.1829 C.3     1  UNL1        0.1685
      4 O         142.3479  139.9572  162.9610 O.3     1  UNL1       -0.3442
      5 C         141.9400  141.3703  163.2553 C.3     1  UNL1        0.1721
      6 C         141.4908  142.7837  163.0303 C.ar    1  UNL1        0.0425
      7 C         141.0547  144.0269  162.3131 C.ar    1  UNL1        0.0158
      8 C         140.6843  144.9499  161.1902 C.ar    1  UNL1        0.0504
      9 C         140.5926  145.6105  162.5801 C.ar    1  UNL1        0.0178
     10 C         140.8527  145.1190  163.9733 C.ar    1  UNL1        0.0379
     11 C         141.3018  143.7056  164.1983 C.ar    1  UNL1        0.1370
     12 N         140.4241  145.4414  159.7970 N.pl3   1  UNL1       -0.2825
     13 C         140.3330  145.2717  157.9899 C.ar    1  UNL1        0.2207
     14 N         139.8969  146.5149  157.2727 N.ar    1  UNL1       -0.2120
     15 C         139.7785  146.5156  155.7774 C.ar    1  UNL1        0.1034
     16 C         140.0962  145.2731  154.9993 C.ar    1  UNL1        0.0399
     17 C         140.5322  144.0300  155.7165 C.ar    1  UNL1        0.0859
     18 N         140.6507  144.0293  157.2118 N.ar    1  UNL1       -0.2135
     19 C         140.8499  142.7875  154.9384 C.ar    1  UNL1        0.0240
     20 C         140.8348  142.4474  153.4347 C.ar    1  UNL1        0.0224
     21 C         141.1525  141.2049  152.6566 C.ar    1  UNL1        0.1021
     22 N         141.5886  139.9617  153.3739 N.ar    1  UNL1       -0.2101
     23 C         141.7070  139.9610  154.8692 C.ar    1  UNL1        0.2249
     24 C         141.2579  141.3745  154.6441 C.ar    1  UNL1        0.0592
     25 O         142.1431  138.7179  155.5864 O.3     1  UNL1       -0.4599
     26 C         142.5136  137.7949  156.7093 C.3     1  UNL1        0.2117
     27 C         142.7737  137.3034  158.1024 C.3     1  UNL1        0.0731
     28 H         140.1505  146.3758  159.9427 H       1  UNL1        0.1551
     29 O         141.5620  143.2141  165.5915 O.3     1  UNL1       -0.4742
     30 C         140.4399  142.6435  166.4072 C.3     1  UNL1        0.2226
     31 C         140.6251  141.3428  167.1310 C.3     1  UNL1        0.1200
     32 N         141.6313  141.2375  168.2385 N.3     1  UNL1       -0.2696
     33 C         141.8262  140.0573  169.1435 C.3     1  UNL1        0.0722
     34 C         142.9346  140.3844  170.0997 C.3     1  UNL1        0.0188
     35 C         143.4248  141.7669  169.7857 C.3     1  UNL1        0.0188
     36 C         142.6192  142.2941  168.6354 C.3     1  UNL1        0.0722
@<TRIPOS>BOND
     1     1     2    2
     2     2     3    1
     3     3     4    1
     4     4     5    1
     5     5     6    1
     6     6     7   ar
     7     7     8   ar
     8     8     9   ar
     9     9    10   ar
    10    10    11   ar
    11    11    29    1
    12    29    30    1
    13    30    31    1
    14    31    32    1
    15    32    33    1
    16    33    34    1
    17    34    35    1
    18    35    36    1
    19     8    12    1
    20    12    13    1
    21    13    14   ar
    22    14    15   ar
    23    15    16   ar
    24    16    17   ar
    25    17    18   ar
    26    17    19    1
    27    19    20   ar
    28    20    21   ar
    29    21    22   ar
    30    22    23   ar
    31    23    24   ar
    32    23    25    1
    33    25    26    1
    34    26    27    1
    35    27     1    1
    36    11     6   ar
    37    36    32    1
    38    18    13   ar
    39    24    19   ar
    40    12    28    1
