@<TRIPOS>MOLECULE
*****
 34 37 0 0 0
SMALL
GASTEIGER

@<TRIPOS>ATOM
      1 C         141.6773  141.3677  167.7080 C.3     1  UNL1        0.2959
      2 N         142.6909  142.3992  168.1065 N.2     1  UNL1       -0.2191
      3 C         143.3829  141.9144  169.3460 C.2     1  UNL1        0.1399
      4 C         144.4700  142.6342  170.0877 C.3     1  UNL1        0.0598
      5 C         142.7969  140.5834  169.7135 C.2     1  UNL1        0.3289
      6 N         143.1952  139.7386  170.8872 N.pl3   1  UNL1       -0.2454
      7 N         141.7428  140.2455  168.7012 N.2     1  UNL1       -0.0404
      8 H         143.9020  140.0476  171.4989 H       1  UNL1        0.2885
      9 H         142.7497  138.8751  171.0460 H       1  UNL1        0.2885
     10 C         141.3872  142.3157  166.5823 C.ar    1  UNL1        0.0475
     11 C         142.3961  142.5144  165.4903 C.ar    1  UNL1        0.0008
     12 C         142.1060  143.4624  164.3647 C.ar    1  UNL1        0.0117
     13 C         143.1150  143.6611  163.2725 C.3     1  UNL1        0.0342
     14 C         140.8070  144.2117  164.3311 C.ar    1  UNL1        0.1307
     15 C         139.7981  144.0131  165.4231 C.ar    1  UNL1        0.0117
     16 C         138.4992  144.7624  165.3895 C.3     1  UNL1        0.0342
     17 C         140.0882  143.0650  166.5487 C.ar    1  UNL1        0.0008
     18 O         140.5169  145.1597  163.2054 O.3     1  UNL1       -0.4721
     19 C         139.8051  144.6717  161.9784 C.3     1  UNL1        0.2524
     20 C         139.5872  139.3914  164.9740 C.ar    1  UNL1        0.0014
     21 C         138.4546  138.8680  165.8066 C.ar    1  UNL1        0.0000
     22 C         138.3962  139.1780  167.2731 C.ar    1  UNL1       -0.0001
     23 C         139.4704  140.0112  167.9070 C.ar    1  UNL1        0.0021
     24 C         140.6031  140.5345  167.0742 C.ar    1  UNL1        0.0479
     25 C         140.6614  140.2246  165.6078 C.ar    1  UNL1        0.0021
     26 C         140.7897  139.3636  161.1920 C.ar    1  UNL1        0.0608
     27 C         139.7624  138.4617  160.5746 C.ar    1  UNL1        0.1071
     28 N         138.6767  137.8697  161.4236 N.ar    1  UNL1       -0.2417
     29 C         138.6183  138.1796  162.8900 C.ar    1  UNL1        0.0989
     30 C         139.6455  139.0815  163.5075 C.ar    1  UNL1        0.0198
     31 C         140.7312  139.6735  162.6585 C.ar    1  UNL1        0.0113
     32 C         144.0467  141.1396  158.6450 C.3     1  UNL1        0.0903
     33 C         142.9610  140.5476  159.4940 C.1     1  UNL1       -0.0853
     34 C         141.8753  139.9556  160.3430 C.1     1  UNL1       -0.0628
@<TRIPOS>BOND
     1    32    33    1
     2    33    34    3
     3    34    26    1
     4    26    27   ar
     5    27    28   ar
     6    28    29   ar
     7    29    30   ar
     8    30    20    1
     9    20    21   ar
    10    21    22   ar
    11    22    23   ar
    12    23    24   ar
    13    24     1    1
    14     1    10    1
    15    10    11   ar
    16    11    12   ar
    17    12    13    1
    18    12    14   ar
    19    14    18    1
    20    18    19    1
    21    14    15   ar
    22    15    16    1
    23    15    17   ar
    24     1     2    1
    25     2     3    2
    26     3     4    1
    27     3     5    1
    28     5     6    1
    29     5     7    2
    30    24    25   ar
    31    30    31   ar
    32    31    26   ar
    33    25    20   ar
    34     7     1    1
    35    17    10   ar
    36     6     8    1
    37     6     9    1
@<TRIPOS>MOLECULE
*****
 34 37 0 0 0
SMALL
GASTEIGER

@<TRIPOS>ATOM
      1 C         140.9626  141.1509  167.8319 C.3     1  UNL1        0.2959
      2 N         140.5031  142.3814  168.5562 N.2     1  UNL1       -0.2191
      3 C         140.0400  141.9693  169.9222 C.2     1  UNL1        0.1399
      4 C         139.4986  142.8822  170.9822 C.3     1  UNL1        0.0598
      5 C         140.2134  140.4842  170.0420 C.2     1  UNL1        0.3289
      6 N         139.8757  139.6512  171.2429 N.pl3   1  UNL1       -0.2454
      7 N         140.7836  139.9784  168.7501 N.2     1  UNL1       -0.0404
      8 H         139.5037  140.0773  172.0487 H       1  UNL1        0.2885
      9 H         140.0262  138.6784  171.2252 H       1  UNL1        0.2885
     10 C         141.2504  142.1080  166.7133 C.ar    1  UNL1        0.0475
     11 C         142.6508  142.2602  166.1981 C.ar    1  UNL1        0.0008
     12 C         142.9385  143.2173  165.0795 C.ar    1  UNL1        0.0117
     13 C         144.3391  143.3695  164.5642 C.3     1  UNL1        0.0342
     14 C         141.8258  144.0221  164.4762 C.ar    1  UNL1        0.1307
     15 C         140.4253  143.8700  164.9914 C.ar    1  UNL1        0.0117
     16 C         139.3126  144.6748  164.3881 C.3     1  UNL1        0.0342
     17 C         140.1376  142.9129  166.1100 C.ar    1  UNL1        0.0008
     18 O         142.1135  144.9792  163.3576 O.3     1  UNL1       -0.4721
     19 C         142.0225  144.5174  161.9333 C.3     1  UNL1        0.2524
     20 C         141.2873  138.8423  164.6202 C.ar    1  UNL1        0.0014
     21 C         142.5218  138.0597  164.9572 C.ar    1  UNL1        0.0000
     22 C         143.2366  138.3075  166.2525 C.ar    1  UNL1       -0.0001
     23 C         142.7169  139.3379  167.2107 C.ar    1  UNL1        0.0021
     24 C         141.4823  140.1205  166.8736 C.ar    1  UNL1        0.0479
     25 C         140.7676  139.8727  165.5784 C.ar    1  UNL1        0.0021
     26 C         140.6049  138.4353  160.7319 C.ar    1  UNL1        0.0608
     27 C         139.1431  138.0991  160.7343 C.ar    1  UNL1        0.1071
     28 N         138.3960  138.0106  162.0320 N.ar    1  UNL1       -0.2417
     29 C         139.1107  138.2584  163.3273 C.ar    1  UNL1        0.0989
     30 C         140.5725  138.5946  163.3248 C.ar    1  UNL1        0.0198
     31 C         141.3196  138.6831  162.0271 C.ar    1  UNL1        0.0113
     32 C         142.8461  138.7008  156.8388 C.3     1  UNL1        0.0903
     33 C         142.0990  138.6123  158.1365 C.1     1  UNL1       -0.0853
     34 C         141.3520  138.5238  159.4342 C.1     1  UNL1       -0.0628
@<TRIPOS>BOND
     1    32    33    1
     2    33    34    3
     3    34    26    1
     4    26    27   ar
     5    27    28   ar
     6    28    29   ar
     7    29    30   ar
     8    30    20    1
     9    20    21   ar
    10    21    22   ar
    11    22    23   ar
    12    23    24   ar
    13    24     1    1
    14     1    10    1
    15    10    11   ar
    16    11    12   ar
    17    12    13    1
    18    12    14   ar
    19    14    18    1
    20    18    19    1
    21    14    15   ar
    22    15    16    1
    23    15    17   ar
    24     1     2    1
    25     2     3    2
    26     3     4    1
    27     3     5    1
    28     5     6    1
    29     5     7    2
    30    24    25   ar
    31    30    31   ar
    32    31    26   ar
    33    25    20   ar
    34     7     1    1
    35    17    10   ar
    36     6     8    1
    37     6     9    1
@<TRIPOS>MOLECULE
*****
 34 37 0 0 0
SMALL
GASTEIGER

@<TRIPOS>ATOM
      1 C         141.6808  141.2815  167.4824 C.3     1  UNL1        0.2959
      2 N         142.6076  142.3265  168.0291 N.2     1  UNL1       -0.2191
      3 C         143.2401  141.7793  169.2743 C.2     1  UNL1        0.1399
      4 C         144.2341  142.4904  170.1440 C.3     1  UNL1        0.0598
      5 C         142.7041  140.3962  169.4972 C.2     1  UNL1        0.3289
      6 N         143.0680  139.4814  170.6289 N.pl3   1  UNL1       -0.2454
      7 N         141.7404  140.0885  168.3897 N.2     1  UNL1       -0.0404
      8 H         143.7143  139.7751  171.3110 H       1  UNL1        0.2885
      9 H         142.6606  138.5872  170.6895 H       1  UNL1        0.2885
     10 C         141.4158  142.3006  166.4140 C.ar    1  UNL1        0.0475
     11 C         140.0654  142.9453  166.3111 C.ar    1  UNL1        0.0008
     12 C         139.8004  143.9644  165.2427 C.ar    1  UNL1        0.0117
     13 C         138.4499  144.6092  165.1397 C.3     1  UNL1        0.0342
     14 C         140.8858  144.3386  164.2774 C.ar    1  UNL1        0.1307
     15 C         142.2362  143.6939  164.3804 C.ar    1  UNL1        0.0117
     16 C         143.3216  144.0681  163.4151 C.3     1  UNL1        0.0342
     17 C         142.5012  142.6748  165.4487 C.ar    1  UNL1        0.0008
     18 O         140.6208  145.3577  163.2091 O.3     1  UNL1       -0.4721
     19 C         140.0748  144.9265  161.8801 C.3     1  UNL1        0.2524
     20 C         139.9851  139.2769  164.5064 C.ar    1  UNL1        0.0014
     21 C         138.7339  138.7857  165.1722 C.ar    1  UNL1        0.0000
     22 C         138.4650  139.1265  166.6080 C.ar    1  UNL1       -0.0001
     23 C         139.4472  139.9584  167.3781 C.ar    1  UNL1        0.0021
     24 C         140.6985  140.4496  166.7123 C.ar    1  UNL1        0.0479
     25 C         140.9674  140.1088  165.2765 C.ar    1  UNL1        0.0021
     26 C         139.7237  139.2488  160.5465 C.ar    1  UNL1        0.0608
     27 C         140.7919  138.2547  160.1990 C.ar    1  UNL1        0.1071
     28 N         141.5912  137.6014  161.2872 N.ar    1  UNL1       -0.2417
     29 C         141.3223  137.9421  162.7230 C.ar    1  UNL1        0.0989
     30 C         140.2541  138.9361  163.0706 C.ar    1  UNL1        0.0198
     31 C         139.4548  139.5895  161.9823 C.ar    1  UNL1        0.0113
     32 C         137.3259  141.2087  157.2817 C.3     1  UNL1        0.0903
     33 C         138.1251  140.5554  158.3700 C.1     1  UNL1       -0.0853
     34 C         138.9244  139.9021  159.4583 C.1     1  UNL1       -0.0628
@<TRIPOS>BOND
     1    32    33    1
     2    33    34    3
     3    34    26    1
     4    26    27   ar
     5    27    28   ar
     6    28    29   ar
     7    29    30   ar
     8    30    20    1
     9    20    21   ar
    10    21    22   ar
    11    22    23   ar
    12    23    24   ar
    13    24     1    1
    14     1    10    1
    15    10    11   ar
    16    11    12   ar
    17    12    13    1
    18    12    14   ar
    19    14    18    1
    20    18    19    1
    21    14    15   ar
    22    15    16    1
    23    15    17   ar
    24     1     2    1
    25     2     3    2
    26     3     4    1
    27     3     5    1
    28     5     6    1
    29     5     7    2
    30    24    25   ar
    31    30    31   ar
    32    31    26   ar
    33    25    20   ar
    34     7     1    1
    35    17    10   ar
    36     6     8    1
    37     6     9    1
@<TRIPOS>MOLECULE
*****
 34 37 0 0 0
SMALL
GASTEIGER

@<TRIPOS>ATOM
      1 C         140.9186  141.2142  167.5219 C.3     1  UNL1        0.2959
      2 N         140.5121  142.4076  168.3345 N.2     1  UNL1       -0.2191
      3 C         140.1623  141.9320  169.7135 C.2     1  UNL1        0.1399
      4 C         139.7029  142.7927  170.8529 C.3     1  UNL1        0.0598
      5 C         140.3526  140.4447  169.7530 C.2     1  UNL1        0.3289
      6 N         140.1169  139.5569  170.9389 N.pl3   1  UNL1       -0.2454
      7 N         140.8201  140.0010  168.3986 N.2     1  UNL1       -0.0404
      8 H         139.8085  139.9439  171.7900 H       1  UNL1        0.2885
      9 H         140.2706  138.5872  170.8661 H       1  UNL1        0.2885
     10 C         141.1106  142.2219  166.4274 C.ar    1  UNL1        0.0475
     11 C         139.9380  143.0033  165.9135 C.ar    1  UNL1        0.0008
     12 C         140.1299  144.0110  164.8191 C.ar    1  UNL1        0.0117
     13 C         138.9572  144.7925  164.3050 C.3     1  UNL1        0.0342
     14 C         141.4944  144.2372  164.2387 C.ar    1  UNL1        0.1307
     15 C         142.6670  143.4557  164.7526 C.ar    1  UNL1        0.0117
     16 C         144.0316  143.6819  164.1722 C.3     1  UNL1        0.0342
     17 C         142.4751  142.4480  165.8471 C.ar    1  UNL1        0.0008
     18 O         141.6864  145.2449  163.1442 O.3     1  UNL1       -0.4721
     19 C         141.5063  144.8393  161.7113 C.3     1  UNL1        0.2524
     20 C         141.1522  139.2315  164.0919 C.ar    1  UNL1        0.0014
     21 C         142.2585  138.2658  164.3974 C.ar    1  UNL1        0.0000
     22 C         142.9183  138.2829  165.7445 C.ar    1  UNL1       -0.0001
     23 C         142.4717  139.2656  166.7860 C.ar    1  UNL1        0.0021
     24 C         141.3653  140.2314  166.4804 C.ar    1  UNL1        0.0479
     25 C         140.7056  140.2143  165.1334 C.ar    1  UNL1        0.0021
     26 C         139.8424  140.4296  160.5424 C.ar    1  UNL1        0.0608
     27 C         139.1730  139.1805  160.0509 C.ar    1  UNL1        0.1071
     28 N         139.1634  137.9484  160.9063 N.ar    1  UNL1       -0.2417
     29 C         139.8231  137.9654  162.2533 C.ar    1  UNL1        0.0989
     30 C         140.4924  139.2145  162.7449 C.ar    1  UNL1        0.0198
     31 C         140.5021  140.4466  161.8894 C.ar    1  UNL1        0.0113
     32 C         139.8713  144.1260  157.9761 C.3     1  UNL1        0.0903
     33 C         139.8616  142.8939  158.8315 C.1     1  UNL1       -0.0853
     34 C         139.8520  141.6618  159.6870 C.1     1  UNL1       -0.0628
@<TRIPOS>BOND
     1    32    33    1
     2    33    34    3
     3    34    26    1
     4    26    27   ar
     5    27    28   ar
     6    28    29   ar
     7    29    30   ar
     8    30    20    1
     9    20    21   ar
    10    21    22   ar
    11    22    23   ar
    12    23    24   ar
    13    24     1    1
    14     1    10    1
    15    10    11   ar
    16    11    12   ar
    17    12    13    1
    18    12    14   ar
    19    14    18    1
    20    18    19    1
    21    14    15   ar
    22    15    16    1
    23    15    17   ar
    24     1     2    1
    25     2     3    2
    26     3     4    1
    27     3     5    1
    28     5     6    1
    29     5     7    2
    30    24    25   ar
    31    30    31   ar
    32    31    26   ar
    33    25    20   ar
    34     7     1    1
    35    17    10   ar
    36     6     8    1
    37     6     9    1
@<TRIPOS>MOLECULE
*****
 34 37 0 0 0
SMALL
GASTEIGER

@<TRIPOS>ATOM
      1 C         139.9392  140.9635  167.2487 C.3     1  UNL1        0.2959
      2 N         140.1200  142.2621  167.9774 N.2     1  UNL1       -0.2191
      3 C         140.1154  141.9723  169.4492 C.2     1  UNL1        0.1399
      4 C         140.2677  142.9829  170.5472 C.3     1  UNL1        0.0598
      5 C         139.9317  140.4947  169.6301 C.2     1  UNL1        0.3289
      6 N         139.8681  139.7681  170.9408 N.pl3   1  UNL1       -0.2454
      7 N         139.8228  139.8712  168.2701 N.2     1  UNL1       -0.0404
      8 H         139.9500  140.2678  171.7851 H       1  UNL1        0.2885
      9 H         139.7445  138.7915  170.9568 H       1  UNL1        0.2885
     10 C         140.0214  141.8219  166.0214 C.ar    1  UNL1        0.0475
     11 C         141.2941  142.5461  165.6965 C.ar    1  UNL1        0.0008
     12 C         141.3763  143.4044  164.4691 C.ar    1  UNL1        0.0117
     13 C         142.6491  144.1286  164.1442 C.3     1  UNL1        0.0342
     14 C         140.1857  143.5386  163.5667 C.ar    1  UNL1        0.1307
     15 C         138.9129  142.8145  163.8915 C.ar    1  UNL1        0.0117
     16 C         137.7223  142.9487  162.9891 C.3     1  UNL1        0.0342
     17 C         138.8308  141.9561  165.1189 C.ar    1  UNL1        0.0008
     18 O         140.2678  144.3970  162.3393 O.3     1  UNL1       -0.4721
     19 C         139.8361  145.8324  162.3976 C.3     1  UNL1        0.2524
     20 C         140.5621  138.5967  164.1247 C.ar    1  UNL1        0.0014
     21 C         139.4483  137.6061  164.2930 C.ar    1  UNL1        0.0000
     22 C         138.4982  137.7347  165.4465 C.ar    1  UNL1       -0.0001
     23 C         138.6618  138.8538  166.4318 C.ar    1  UNL1        0.0021
     24 C         139.7756  139.8444  166.2635 C.ar    1  UNL1        0.0479
     25 C         140.7257  139.7158  165.1099 C.ar    1  UNL1        0.0021
     26 C         141.9381  138.3240  160.4122 C.ar    1  UNL1        0.0608
     27 C         143.4125  138.2110  160.6640 C.ar    1  UNL1        0.1071
     28 N         143.9367  138.2265  162.0693 N.ar    1  UNL1       -0.2417
     29 C         142.9866  138.3551  163.2228 C.ar    1  UNL1        0.0989
     30 C         141.5123  138.4681  162.9711 C.ar    1  UNL1        0.0198
     31 C         140.9880  138.4526  161.5658 C.ar    1  UNL1        0.0113
     32 C         140.3653  138.2774  156.1963 C.3     1  UNL1        0.0903
     33 C         140.8896  138.2929  157.6016 C.1     1  UNL1       -0.0853
     34 C         141.4138  138.3085  159.0069 C.1     1  UNL1       -0.0628
@<TRIPOS>BOND
     1    32    33    1
     2    33    34    3
     3    34    26    1
     4    26    27   ar
     5    27    28   ar
     6    28    29   ar
     7    29    30   ar
     8    30    20    1
     9    20    21   ar
    10    21    22   ar
    11    22    23   ar
    12    23    24   ar
    13    24     1    1
    14     1    10    1
    15    10    11   ar
    16    11    12   ar
    17    12    13    1
    18    12    14   ar
    19    14    18    1
    20    18    19    1
    21    14    15   ar
    22    15    16    1
    23    15    17   ar
    24     1     2    1
    25     2     3    2
    26     3     4    1
    27     3     5    1
    28     5     6    1
    29     5     7    2
    30    24    25   ar
    31    30    31   ar
    32    31    26   ar
    33    25    20   ar
    34     7     1    1
    35    17    10   ar
    36     6     8    1
    37     6     9    1
@<TRIPOS>MOLECULE
*****
 34 37 0 0 0
SMALL
GASTEIGER

@<TRIPOS>ATOM
      1 C         141.3130  141.9536  167.7999 C.3     1  UNL1        0.2959
      2 N         140.3390  142.9713  168.3153 N.2     1  UNL1       -0.2191
      3 C         140.9172  143.5779  169.5594 C.2     1  UNL1        0.1399
      4 C         140.2765  144.6407  170.4020 C.3     1  UNL1        0.0598
      5 C         142.2486  142.9351  169.8129 C.2     1  UNL1        0.3289
      6 N         143.1730  143.2423  170.9536 N.pl3   1  UNL1       -0.2454
      7 N         142.4932  141.9313  168.7255 N.2     1  UNL1       -0.0404
      8 H         142.9227  143.9215  171.6208 H       1  UNL1        0.2885
      9 H         144.0300  142.7647  171.0350 H       1  UNL1        0.2885
     10 C         140.2919  141.7545  166.7194 C.ar    1  UNL1        0.0475
     11 C         139.8573  142.9156  165.8751 C.ar    1  UNL1        0.0008
     12 C         138.8361  142.7165  164.7945 C.ar    1  UNL1        0.0117
     13 C         138.4015  143.8777  163.9502 C.3     1  UNL1        0.0342
     14 C         138.2496  141.3563  164.5584 C.ar    1  UNL1        0.1307
     15 C         138.6841  140.1952  165.4026 C.ar    1  UNL1        0.0117
     16 C         138.0976  138.8350  165.1665 C.3     1  UNL1        0.0342
     17 C         139.7053  140.3943  166.4832 C.ar    1  UNL1        0.0008
     18 O         137.2284  141.1572  163.4778 O.3     1  UNL1       -0.4721
     19 C         137.6661  140.7916  162.0903 C.3     1  UNL1        0.2524
     20 C         143.0670  139.9726  164.8421 C.ar    1  UNL1        0.0014
     21 C         143.5947  138.7757  165.5762 C.ar    1  UNL1        0.0000
     22 C         143.3619  138.6381  167.0517 C.ar    1  UNL1       -0.0001
     23 C         142.6013  139.6974  167.7929 C.ar    1  UNL1        0.0021
     24 C         142.0736  140.8943  167.0587 C.ar    1  UNL1        0.0479
     25 C         142.3065  141.0319  165.5833 C.ar    1  UNL1        0.0021
     26 C         143.0210  141.4538  161.1605 C.ar    1  UNL1        0.0608
     27 C         143.7655  140.3855  160.4158 C.ar    1  UNL1        0.1071
     28 N         144.2772  139.1796  161.1466 N.ar    1  UNL1       -0.2417
     29 C         144.0443  139.0420  162.6220 C.ar    1  UNL1        0.0989
     30 C         143.2999  140.1102  163.3666 C.ar    1  UNL1        0.0198
     31 C         142.7882  141.3161  162.6359 C.ar    1  UNL1        0.0113
     32 C         141.4860  145.0715  158.9683 C.3     1  UNL1        0.0903
     33 C         141.9977  143.8656  159.6990 C.1     1  UNL1       -0.0853
     34 C         142.5094  142.6597  160.4297 C.1     1  UNL1       -0.0628
@<TRIPOS>BOND
     1    32    33    1
     2    33    34    3
     3    34    26    1
     4    26    27   ar
     5    27    28   ar
     6    28    29   ar
     7    29    30   ar
     8    30    20    1
     9    20    21   ar
    10    21    22   ar
    11    22    23   ar
    12    23    24   ar
    13    24     1    1
    14     1    10    1
    15    10    11   ar
    16    11    12   ar
    17    12    13    1
    18    12    14   ar
    19    14    18    1
    20    18    19    1
    21    14    15   ar
    22    15    16    1
    23    15    17   ar
    24     1     2    1
    25     2     3    2
    26     3     4    1
    27     3     5    1
    28     5     6    1
    29     5     7    2
    30    24    25   ar
    31    30    31   ar
    32    31    26   ar
    33    25    20   ar
    34     7     1    1
    35    17    10   ar
    36     6     8    1
    37     6     9    1
@<TRIPOS>MOLECULE
*****
 34 37 0 0 0
SMALL
GASTEIGER

@<TRIPOS>ATOM
      1 C         141.5598  141.7661  167.3858 C.3     1  UNL1        0.2959
      2 N         140.5126  142.6053  168.0559 N.2     1  UNL1       -0.2191
      3 C         141.1102  143.1820  169.3051 C.2     1  UNL1        0.1399
      4 C         140.4135  144.0833  170.2810 C.3     1  UNL1        0.0598
      5 C         142.5267  142.6992  169.4069 C.2     1  UNL1        0.3289
      6 N         143.4952  143.0329  170.5026 N.pl3   1  UNL1       -0.2454
      7 N         142.8046  141.8242  168.2208 N.2     1  UNL1       -0.0404
      8 H         143.2178  143.6195  171.2431 H       1  UNL1        0.2885
      9 H         144.4083  142.6654  170.4813 H       1  UNL1        0.2885
     10 C         140.4871  141.5220  166.3662 C.ar    1  UNL1        0.0475
     11 C         140.1015  140.1182  166.0047 C.ar    1  UNL1        0.0008
     12 C         139.0287  139.8741  164.9851 C.ar    1  UNL1        0.0117
     13 C         138.6431  138.4702  164.6236 C.3     1  UNL1        0.0342
     14 C         138.3417  141.0337  164.3269 C.ar    1  UNL1        0.1307
     15 C         138.7272  142.4374  164.6884 C.ar    1  UNL1        0.0117
     16 C         138.0402  143.5971  164.0302 C.3     1  UNL1        0.0342
     17 C         139.8000  142.6816  165.7080 C.ar    1  UNL1        0.0008
     18 O         137.2689  140.7895  163.3073 O.3     1  UNL1       -0.4721
     19 C         137.6267  140.6745  161.8550 C.3     1  UNL1        0.2524
     20 C         143.5208  140.4069  164.2145 C.ar    1  UNL1        0.0014
     21 C         144.0286  139.0954  164.7359 C.ar    1  UNL1        0.0000
     22 C         143.7136  138.6740  166.1407 C.ar    1  UNL1       -0.0001
     23 C         142.8906  139.5643  167.0240 C.ar    1  UNL1        0.0021
     24 C         142.3827  140.8759  166.5025 C.ar    1  UNL1        0.0479
     25 C         142.6978  141.2972  165.0978 C.ar    1  UNL1        0.0021
     26 C         143.7178  140.3951  160.2508 C.ar    1  UNL1        0.0608
     27 C         144.4660  141.6708  160.0004 C.ar    1  UNL1        0.1071
     28 N         144.8991  142.5252  161.1547 N.ar    1  UNL1       -0.2417
     29 C         144.5841  142.1039  162.5594 C.ar    1  UNL1        0.0989
     30 C         143.8359  140.8282  162.8098 C.ar    1  UNL1        0.0198
     31 C         143.4027  139.9738  161.6555 C.ar    1  UNL1        0.0113
     32 C         142.4183  137.8319  156.7880 C.3     1  UNL1        0.0903
     33 C         142.8515  138.6863  157.9422 C.1     1  UNL1       -0.0853
     34 C         143.2846  139.5407  159.0965 C.1     1  UNL1       -0.0628
@<TRIPOS>BOND
     1    32    33    1
     2    33    34    3
     3    34    26    1
     4    26    27   ar
     5    27    28   ar
     6    28    29   ar
     7    29    30   ar
     8    30    20    1
     9    20    21   ar
    10    21    22   ar
    11    22    23   ar
    12    23    24   ar
    13    24     1    1
    14     1    10    1
    15    10    11   ar
    16    11    12   ar
    17    12    13    1
    18    12    14   ar
    19    14    18    1
    20    18    19    1
    21    14    15   ar
    22    15    16    1
    23    15    17   ar
    24     1     2    1
    25     2     3    2
    26     3     4    1
    27     3     5    1
    28     5     6    1
    29     5     7    2
    30    24    25   ar
    31    30    31   ar
    32    31    26   ar
    33    25    20   ar
    34     7     1    1
    35    17    10   ar
    36     6     8    1
    37     6     9    1
@<TRIPOS>MOLECULE
*****
 34 37 0 0 0
SMALL
GASTEIGER

@<TRIPOS>ATOM
      1 C         141.6462  141.2729  167.4112 C.3     1  UNL1        0.2959
      2 N         140.4841  140.9751  168.3116 N.2     1  UNL1       -0.2191
      3 C         141.0268  140.5119  169.6311 C.2     1  UNL1        0.1399
      4 C         140.2145  140.1080  170.8257 C.3     1  UNL1        0.0598
      5 C         142.5243  140.5236  169.5462 C.2     1  UNL1        0.3289
      6 N         143.4725  140.1334  170.6410 N.pl3   1  UNL1       -0.2454
      7 N         142.9072  140.9939  168.1742 N.2     1  UNL1       -0.0404
      8 H         143.1231  139.8360  171.5120 H       1  UNL1        0.2885
      9 H         144.4443  140.1746  170.4885 H       1  UNL1        0.2885
     10 C         140.5817  141.6299  166.4165 C.ar    1  UNL1        0.0475
     11 C         139.8716  140.5484  165.6575 C.ar    1  UNL1        0.0008
     12 C         138.8071  140.9053  164.6628 C.ar    1  UNL1        0.0117
     13 C         138.0969  139.8238  163.9037 C.3     1  UNL1        0.0342
     14 C         138.4527  142.3437  164.4271 C.ar    1  UNL1        0.1307
     15 C         139.1628  143.4251  165.1861 C.ar    1  UNL1        0.0117
     16 C         138.8085  144.8635  164.9505 C.3     1  UNL1        0.0342
     17 C         140.2273  143.0682  166.1809 C.ar    1  UNL1        0.0008
     18 O         137.3882  142.7006  163.4324 O.3     1  UNL1       -0.4721
     19 C         137.7511  142.9285  161.9949 C.3     1  UNL1        0.2524
     20 C         143.4163  141.3422  163.8599 C.ar    1  UNL1        0.0014
     21 C         144.4650  142.3904  164.0863 C.ar    1  UNL1        0.0000
     22 C         144.5742  143.0663  165.4210 C.ar    1  UNL1       -0.0001
     23 C         143.6346  142.6938  166.5293 C.ar    1  UNL1        0.0021
     24 C         142.5858  141.6454  166.3029 C.ar    1  UNL1        0.0479
     25 C         142.4767  140.9697  164.9683 C.ar    1  UNL1        0.0021
     26 C         141.9521  140.1473  160.3702 C.ar    1  UNL1        0.0608
     27 C         143.0889  139.3147  159.8559 C.ar    1  UNL1        0.1071
     28 N         144.3348  139.1579  160.6763 N.ar    1  UNL1       -0.2417
     29 C         144.4440  139.8337  162.0110 C.ar    1  UNL1        0.0989
     30 C         143.3072  140.6663  162.5252 C.ar    1  UNL1        0.0198
     31 C         142.0613  140.8231  161.7048 C.ar    1  UNL1        0.0113
     32 C         138.2143  140.6178  157.9089 C.3     1  UNL1        0.0903
     33 C         139.4603  140.4610  158.7293 C.1     1  UNL1       -0.0853
     34 C         140.7062  140.3041  159.5497 C.1     1  UNL1       -0.0628
@<TRIPOS>BOND
     1    32    33    1
     2    33    34    3
     3    34    26    1
     4    26    27   ar
     5    27    28   ar
     6    28    29   ar
     7    29    30   ar
     8    30    20    1
     9    20    21   ar
    10    21    22   ar
    11    22    23   ar
    12    23    24   ar
    13    24     1    1
    14     1    10    1
    15    10    11   ar
    16    11    12   ar
    17    12    13    1
    18    12    14   ar
    19    14    18    1
    20    18    19    1
    21    14    15   ar
    22    15    16    1
    23    15    17   ar
    24     1     2    1
    25     2     3    2
    26     3     4    1
    27     3     5    1
    28     5     6    1
    29     5     7    2
    30    24    25   ar
    31    30    31   ar
    32    31    26   ar
    33    25    20   ar
    34     7     1    1
    35    17    10   ar
    36     6     8    1
    37     6     9    1
@<TRIPOS>MOLECULE
*****
 34 37 0 0 0
SMALL
GASTEIGER

@<TRIPOS>ATOM
      1 C         141.5290  141.9604  166.8282 C.3     1  UNL1        0.2959
      2 N         142.7629  141.7198  167.6465 N.2     1  UNL1       -0.2191
      3 C         142.5754  142.3892  168.9757 C.2     1  UNL1        0.1399
      4 C         143.5641  142.4020  170.1037 C.3     1  UNL1        0.0598
      5 C         141.2256  143.0435  168.9789 C.2     1  UNL1        0.3289
      6 N         140.6276  143.8255  170.1107 N.pl3   1  UNL1       -0.2454
      7 N         140.5789  142.7785  167.6517 N.2     1  UNL1       -0.0404
      8 H         141.1328  143.9453  170.9472 H       1  UNL1        0.2885
      9 H         139.7300  144.2189  170.0170 H       1  UNL1        0.2885
     10 C         142.2527  141.1575  165.7882 C.ar    1  UNL1        0.0475
     11 C         141.6873  139.8482  165.3239 C.ar    1  UNL1        0.0008
     12 C         142.4110  139.0453  164.2839 C.ar    1  UNL1        0.0117
     13 C         141.8455  137.7358  163.8196 C.3     1  UNL1        0.0342
     14 C         143.7002  139.5518  163.7082 C.ar    1  UNL1        0.1307
     15 C         144.2657  140.8612  164.1725 C.ar    1  UNL1        0.0117
     16 C         145.5548  141.3678  163.5969 C.3     1  UNL1        0.0342
     17 C         143.5419  141.6641  165.2125 C.ar    1  UNL1        0.0008
     18 O         144.4239  138.7490  162.6682 O.3     1  UNL1       -0.4721
     19 C         144.0707  138.9067  161.2189 C.3     1  UNL1        0.2524
     20 C         139.5313  142.9914  163.5577 C.ar    1  UNL1        0.0014
     21 C         138.2812  142.1787  163.7211 C.ar    1  UNL1        0.0000
     22 C         138.1137  141.2932  164.9202 C.ar    1  UNL1       -0.0001
     23 C         139.1963  141.2204  165.9559 C.ar    1  UNL1        0.0021
     24 C         140.4464  142.0332  165.7925 C.ar    1  UNL1        0.0479
     25 C         140.6139  142.9187  164.5934 C.ar    1  UNL1        0.0021
     26 C         140.2808  144.1729  159.8439 C.ar    1  UNL1        0.0608
     27 C         140.0340  145.6478  159.9604 C.ar    1  UNL1        0.1071
     28 N         139.6195  146.2373  161.2760 N.ar    1  UNL1       -0.2417
     29 C         139.4520  145.3519  162.4751 C.ar    1  UNL1        0.0989
     30 C         139.6989  143.8770  162.3586 C.ar    1  UNL1        0.0198
     31 C         140.1133  143.2875  161.0430 C.ar    1  UNL1        0.0113
     32 C         141.5241  142.4045  155.8971 C.3     1  UNL1        0.0903
     33 C         141.1097  142.9940  157.2127 C.1     1  UNL1       -0.0853
     34 C         140.6952  143.5834  158.5283 C.1     1  UNL1       -0.0628
@<TRIPOS>BOND
     1    32    33    1
     2    33    34    3
     3    34    26    1
     4    26    27   ar
     5    27    28   ar
     6    28    29   ar
     7    29    30   ar
     8    30    20    1
     9    20    21   ar
    10    21    22   ar
    11    22    23   ar
    12    23    24   ar
    13    24     1    1
    14     1    10    1
    15    10    11   ar
    16    11    12   ar
    17    12    13    1
    18    12    14   ar
    19    14    18    1
    20    18    19    1
    21    14    15   ar
    22    15    16    1
    23    15    17   ar
    24     1     2    1
    25     2     3    2
    26     3     4    1
    27     3     5    1
    28     5     6    1
    29     5     7    2
    30    24    25   ar
    31    30    31   ar
    32    31    26   ar
    33    25    20   ar
    34     7     1    1
    35    17    10   ar
    36     6     8    1
    37     6     9    1
