@<TRIPOS>MOLECULE
*****
 31 34 0 0 0
SMALL
GASTEIGER

@<TRIPOS>ATOM
      1 C         142.5524  138.1587  158.3557 C.ar    1  UNL1        0.0000
      2 C         141.4197  137.9145  159.3082 C.ar    1  UNL1        0.0000
      3 C         141.7566  138.5803  160.6096 C.ar    1  UNL1        0.0000
      4 N         143.0976  139.2360  160.4612 N.ar    1  UNL1        0.0000
      5 N         143.5894  138.9754  159.0683 N.ar    1  UNL1        0.0000
      6 C         143.8199  140.0153  161.5199 C.ar    1  UNL1        0.0000
      7 C         144.1209  141.4692  161.3068 C.ar    1  UNL1        0.0000
      8 C         144.8432  142.2486  162.3655 C.ar    1  UNL1        0.0000
      9 C         145.2645  141.5740  163.6373 C.ar    1  UNL1        0.0000
     10 F         145.9868  142.3534  164.6960 F       1  UNL1        0.0000
     11 C         144.9635  140.1200  163.8504 C.ar    1  UNL1        0.0000
     12 C         144.2412  139.3407  162.7916 C.ar    1  UNL1        0.0000
     13 C         140.9025  138.5889  161.8426 C.ar    1  UNL1        0.0000
     14 C         141.0500  137.5011  162.8647 C.ar    1  UNL1        0.0000
     15 C         140.1959  137.5097  164.0977 C.ar    1  UNL1        0.0000
     16 C         139.1944  138.6062  164.3087 C.ar    1  UNL1        0.0000
     17 C         139.0469  139.6941  163.2866 C.ar    1  UNL1        0.0000
     18 C         139.9010  139.6855  162.0536 C.ar    1  UNL1        0.0000
     19 C         138.3403  138.6148  165.5418 C.3     1  UNL1        0.0000
     20 F         137.4862  138.6235  166.7748 F       1  UNL1        0.0000
     21 F         138.5379  137.1352  165.6890 F       1  UNL1        0.0000
     22 F         138.1427  140.0944  165.3946 F       1  UNL1        0.0000
     23 C         142.6339  137.6717  156.9393 C.3     1  UNL1        0.0000
     24 C         142.7106  131.9611  156.4640 C.3     1  UNL1        0.0000
     25 SI        142.1592  133.2889  156.0361 Si      1  UNL1        0.0000
     26 C         141.3654  132.3783  155.1469 C.3     1  UNL1        0.0000
     27 C         141.3321  134.3004  155.2994 C.3     1  UNL1        0.0000
     28 C         141.4904  135.7613  155.6004 C.3     1  UNL1        0.0000
     29 N         142.4757  136.2107  156.6383 N.3     1  UNL1        0.0000
     30 C         143.3028  135.1993  157.3750 C.3     1  UNL1        0.0000
     31 C         143.1445  133.7384  157.0739 C.3     1  UNL1        0.0000
@<TRIPOS>BOND
     1    24    25    1
     2    25    26    1
     3    25    27    1
     4    27    28    1
     5    28    29    1
     6    29    23    1
     7    23     1    1
     8     1     2   ar
     9     2     3   ar
    10     3    13    1
    11    13    14   ar
    12    14    15   ar
    13    15    16   ar
    14    16    19    1
    15    19    20    1
    16    19    21    1
    17    19    22    1
    18    16    17   ar
    19    17    18   ar
    20     3     4   ar
    21     4     6    1
    22     6     7   ar
    23     7     8   ar
    24     8     9   ar
    25     9    10    1
    26     9    11   ar
    27    11    12   ar
    28     4     5   ar
    29    29    30    1
    30    30    31    1
    31    31    25    1
    32     5     1   ar
    33    18    13   ar
    34    12     6   ar
@<TRIPOS>MOLECULE
*****
 31 34 0 0 0
SMALL
GASTEIGER

@<TRIPOS>ATOM
      1 C         142.4980  138.1606  158.2915 C.ar    1  UNL1        0.0000
      2 C         141.3590  137.9516  159.2449 C.ar    1  UNL1        0.0000
      3 C         141.7147  138.6120  160.5440 C.ar    1  UNL1        0.0000
      4 N         143.0736  139.2292  160.3934 N.ar    1  UNL1        0.0000
      5 N         143.5576  138.9502  159.0013 N.ar    1  UNL1        0.0000
      6 C         143.8176  139.9914  161.4494 C.ar    1  UNL1        0.0000
      7 C         144.2001  139.3158  162.7328 C.ar    1  UNL1        0.0000
      8 C         144.9442  140.0780  163.7889 C.ar    1  UNL1        0.0000
      9 C         145.3059  141.5159  163.5615 C.ar    1  UNL1        0.0000
     10 F         146.0500  142.2782  164.6176 F       1  UNL1        0.0000
     11 C         144.9234  142.1916  162.2780 C.ar    1  UNL1        0.0000
     12 C         144.1793  141.4292  161.2220 C.ar    1  UNL1        0.0000
     13 C         140.8614  138.6487  161.7771 C.ar    1  UNL1        0.0000
     14 C         140.9389  137.5327  162.7763 C.ar    1  UNL1        0.0000
     15 C         140.0856  137.5695  164.0093 C.ar    1  UNL1        0.0000
     16 C         139.1548  138.7222  164.2432 C.ar    1  UNL1        0.0000
     17 C         139.0773  139.8382  163.2440 C.ar    1  UNL1        0.0000
     18 C         139.9306  139.8015  162.0109 C.ar    1  UNL1        0.0000
     19 C         138.3015  138.7589  165.4763 C.3     1  UNL1        0.0000
     20 F         137.4482  138.7956  166.7094 F       1  UNL1        0.0000
     21 F         138.0908  140.2319  165.2867 F       1  UNL1        0.0000
     22 F         138.5122  137.2859  165.6660 F       1  UNL1        0.0000
     23 C         142.5655  137.6669  156.8767 C.3     1  UNL1        0.0000
     24 C         141.3535  132.3449  155.1304 C.3     1  UNL1        0.0000
     25 SI        142.1443  133.2723  156.0049 Si      1  UNL1        0.0000
     26 C         142.7200  131.9553  156.4341 C.3     1  UNL1        0.0000
     27 C         143.1350  133.7423  157.0284 C.3     1  UNL1        0.0000
     28 C         143.2754  135.2071  157.3190 C.3     1  UNL1        0.0000
     29 N         142.4251  136.2020  156.5861 N.3     1  UNL1        0.0000
     30 C         141.4344  135.7320  155.5626 C.3     1  UNL1        0.0000
     31 C         141.2940  134.2672  155.2720 C.3     1  UNL1        0.0000
@<TRIPOS>BOND
     1    24    25    1
     2    25    26    1
     3    25    27    1
     4    27    28    1
     5    28    29    1
     6    29    23    1
     7    23     1    1
     8     1     2   ar
     9     2     3   ar
    10     3    13    1
    11    13    14   ar
    12    14    15   ar
    13    15    16   ar
    14    16    19    1
    15    19    20    1
    16    19    21    1
    17    19    22    1
    18    16    17   ar
    19    17    18   ar
    20     3     4   ar
    21     4     6    1
    22     6     7   ar
    23     7     8   ar
    24     8     9   ar
    25     9    10    1
    26     9    11   ar
    27    11    12   ar
    28     4     5   ar
    29    29    30    1
    30    30    31    1
    31    31    25    1
    32     5     1   ar
    33    18    13   ar
    34    12     6   ar
@<TRIPOS>MOLECULE
*****
 31 34 0 0 0
SMALL
GASTEIGER

@<TRIPOS>ATOM
      1 C         141.4174  143.5546  162.4299 C.ar    1  UNL1        0.0000
      2 C         141.8248  143.8788  163.8366 C.ar    1  UNL1        0.0000
      3 C         141.3563  142.7635  164.7236 C.ar    1  UNL1        0.0000
      4 N         140.6594  141.7500  163.8650 N.ar    1  UNL1        0.0000
      5 N         140.6971  142.2389  162.4475 N.ar    1  UNL1        0.0000
      6 C         140.0344  140.4721  164.3405 C.ar    1  UNL1        0.0000
      7 C         140.6902  139.1578  164.0361 C.ar    1  UNL1        0.0000
      8 C         140.0652  137.8798  164.5116 C.ar    1  UNL1        0.0000
      9 C         138.7844  137.9160  165.2916 C.ar    1  UNL1        0.0000
     10 F         138.1594  136.6380  165.7671 F       1  UNL1        0.0000
     11 C         138.1286  139.2303  165.5961 C.ar    1  UNL1        0.0000
     12 C         138.7537  140.5083  165.1205 C.ar    1  UNL1        0.0000
     13 C         141.5507  142.6769  166.2085 C.ar    1  UNL1        0.0000
     14 C         142.8902  142.3007  166.7688 C.ar    1  UNL1        0.0000
     15 C         143.0846  142.2141  168.2536 C.ar    1  UNL1        0.0000
     16 C         141.9394  142.5037  169.1781 C.ar    1  UNL1        0.0000
     17 C         140.5998  142.8799  168.6177 C.ar    1  UNL1        0.0000
     18 C         140.4055  142.9665  167.1329 C.ar    1  UNL1        0.0000
     19 C         142.1338  142.4171  170.6629 C.3     1  UNL1        0.0000
     20 F         142.3281  142.3305  172.1477 F       1  UNL1        0.0000
     21 F         141.2898  141.1776  170.7011 F       1  UNL1        0.0000
     22 F         142.9777  143.6565  170.6247 F       1  UNL1        0.0000
     23 C         141.6835  144.3979  161.2183 C.3     1  UNL1        0.0000
     24 C         144.0068  142.6929  156.2648 C.3     1  UNL1        0.0000
     25 SI        144.0174  142.7020  157.7648 Si      1  UNL1        0.0000
     26 C         145.2199  141.8450  157.5010 C.3     1  UNL1        0.0000
     27 C         144.4456  142.4135  159.1731 C.3     1  UNL1        0.0000
     28 C         143.6676  142.9788  160.3242 C.3     1  UNL1        0.0000
     29 N         142.4615  143.8326  160.0671 N.3     1  UNL1        0.0000
     30 C         142.0333  144.1211  158.6588 C.3     1  UNL1        0.0000
     31 C         142.8112  143.5558  157.5076 C.3     1  UNL1        0.0000
@<TRIPOS>BOND
     1    24    25    1
     2    25    26    1
     3    25    27    1
     4    27    28    1
     5    28    29    1
     6    29    23    1
     7    23     1    1
     8     1     2   ar
     9     2     3   ar
    10     3    13    1
    11    13    14   ar
    12    14    15   ar
    13    15    16   ar
    14    16    19    1
    15    19    20    1
    16    19    21    1
    17    19    22    1
    18    16    17   ar
    19    17    18   ar
    20     3     4   ar
    21     4     6    1
    22     6     7   ar
    23     7     8   ar
    24     8     9   ar
    25     9    10    1
    26     9    11   ar
    27    11    12   ar
    28     4     5   ar
    29    29    30    1
    30    30    31    1
    31    31    25    1
    32     5     1   ar
    33    18    13   ar
    34    12     6   ar
@<TRIPOS>MOLECULE
*****
 31 34 0 0 0
SMALL
GASTEIGER

@<TRIPOS>ATOM
      1 C         142.5800  138.1723  158.4606 C.ar    1  UNL1        0.0000
      2 C         143.2796  139.3072  159.1481 C.ar    1  UNL1        0.0000
      3 C         142.7486  139.3992  160.5480 C.ar    1  UNL1        0.0000
      4 N         141.7208  138.3211  160.7257 N.ar    1  UNL1        0.0000
      5 N         141.6167  137.5628  159.4357 N.ar    1  UNL1        0.0000
      6 C         140.9352  138.0491  161.9741 C.ar    1  UNL1        0.0000
      7 C         141.6381  137.5923  163.2180 C.ar    1  UNL1        0.0000
      8 C         140.8525  137.3203  164.4665 C.ar    1  UNL1        0.0000
      9 C         139.3639  137.5050  164.4712 C.ar    1  UNL1        0.0000
     10 F         138.5783  137.2330  165.7197 F       1  UNL1        0.0000
     11 C         138.6609  137.9618  163.2272 C.ar    1  UNL1        0.0000
     12 C         139.4466  138.2338  161.9788 C.ar    1  UNL1        0.0000
     13 C         143.1711  140.3945  161.5876 C.ar    1  UNL1        0.0000
     14 C         142.2695  141.5406  161.9389 C.ar    1  UNL1        0.0000
     15 C         142.6920  142.5359  162.9785 C.ar    1  UNL1        0.0000
     16 C         144.0161  142.3851  163.6669 C.ar    1  UNL1        0.0000
     17 C         144.9177  141.2389  163.3156 C.ar    1  UNL1        0.0000
     18 C         144.4952  140.2436  162.2760 C.ar    1  UNL1        0.0000
     19 C         144.4386  143.3804  164.7065 C.3     1  UNL1        0.0000
     20 F         144.8611  144.3757  165.7461 F       1  UNL1        0.0000
     21 F         145.7576  142.6790  164.8419 F       1  UNL1        0.0000
     22 F         143.1197  144.0818  164.5710 F       1  UNL1        0.0000
     23 C         142.8044  137.7252  157.0465 C.3     1  UNL1        0.0000
     24 C         142.5632  132.0551  156.2508 C.3     1  UNL1        0.0000
     25 SI        142.0841  133.4332  155.9023 Si      1  UNL1        0.0000
     26 C         141.2370  132.6192  154.9695 C.3     1  UNL1        0.0000
     27 C         141.3108  134.5285  155.2299 C.3     1  UNL1        0.0000
     28 C         141.5509  135.9592  155.6113 C.3     1  UNL1        0.0000
     29 N         142.5643  136.2946  156.6651 N.3     1  UNL1        0.0000
     30 C         143.3376  135.1992  157.3375 C.3     1  UNL1        0.0000
     31 C         143.0974  133.7685  156.9562 C.3     1  UNL1        0.0000
@<TRIPOS>BOND
     1    24    25    1
     2    25    26    1
     3    25    27    1
     4    27    28    1
     5    28    29    1
     6    29    23    1
     7    23     1    1
     8     1     2   ar
     9     2     3   ar
    10     3    13    1
    11    13    14   ar
    12    14    15   ar
    13    15    16   ar
    14    16    19    1
    15    19    20    1
    16    19    21    1
    17    19    22    1
    18    16    17   ar
    19    17    18   ar
    20     3     4   ar
    21     4     6    1
    22     6     7   ar
    23     7     8   ar
    24     8     9   ar
    25     9    10    1
    26     9    11   ar
    27    11    12   ar
    28     4     5   ar
    29    29    30    1
    30    30    31    1
    31    31    25    1
    32     5     1   ar
    33    18    13   ar
    34    12     6   ar
@<TRIPOS>MOLECULE
*****
 31 34 0 0 0
SMALL
GASTEIGER

@<TRIPOS>ATOM
      1 C         139.8961  143.6525  162.6275 C.ar    1  UNL1        0.0000
      2 C         139.3405  143.3212  163.9809 C.ar    1  UNL1        0.0000
      3 C         140.2921  142.3773  164.6543 C.ar    1  UNL1        0.0000
      4 N         141.4360  142.1253  163.7172 N.ar    1  UNL1        0.0000
      5 N         141.1913  142.9134  162.4646 N.ar    1  UNL1        0.0000
      6 C         142.6171  141.2405  163.9855 C.ar    1  UNL1        0.0000
      7 C         144.0063  141.8017  163.9135 C.ar    1  UNL1        0.0000
      8 C         145.1874  140.9169  164.1819 C.ar    1  UNL1        0.0000
      9 C         144.9794  139.4709  164.5222 C.ar    1  UNL1        0.0000
     10 F         146.1606  138.5861  164.7906 F       1  UNL1        0.0000
     11 C         143.5901  138.9097  164.5943 C.ar    1  UNL1        0.0000
     12 C         142.4090  139.7945  164.3259 C.ar    1  UNL1        0.0000
     13 C         140.1287  141.7888  166.0243 C.ar    1  UNL1        0.0000
     14 C         139.4512  140.4614  166.1944 C.ar    1  UNL1        0.0000
     15 C         139.2878  139.8729  167.5644 C.ar    1  UNL1        0.0000
     16 C         139.8017  140.6117  168.7643 C.ar    1  UNL1        0.0000
     17 C         140.4792  141.9392  168.5942 C.ar    1  UNL1        0.0000
     18 C         140.6426  142.5277  167.2242 C.ar    1  UNL1        0.0000
     19 C         139.6382  140.0232  170.1343 C.3     1  UNL1        0.0000
     20 F         139.4747  139.4347  171.5043 F       1  UNL1        0.0000
     21 F         141.0176  139.4402  170.0484 F       1  UNL1        0.0000
     22 F         138.2588  140.6062  170.2201 F       1  UNL1        0.0000
     23 C         139.2672  144.5631  161.6150 C.3     1  UNL1        0.0000
     24 C         141.2469  145.1320  156.2672 C.3     1  UNL1        0.0000
     25 SI        140.5110  144.3267  157.2968 Si      1  UNL1        0.0000
     26 C         140.4103  143.4007  156.1210 C.3     1  UNL1        0.0000
     27 C         139.7402  143.1999  157.9180 C.3     1  UNL1        0.0000
     28 C         139.3256  143.2787  159.3574 C.3     1  UNL1        0.0000
     29 N         139.6818  144.4843  160.1756 N.3     1  UNL1        0.0000
     30 C         140.4527  145.6111  159.5544 C.3     1  UNL1        0.0000
     31 C         140.8673  145.5324  158.1149 C.3     1  UNL1        0.0000
@<TRIPOS>BOND
     1    24    25    1
     2    25    26    1
     3    25    27    1
     4    27    28    1
     5    28    29    1
     6    29    23    1
     7    23     1    1
     8     1     2   ar
     9     2     3   ar
    10     3    13    1
    11    13    14   ar
    12    14    15   ar
    13    15    16   ar
    14    16    19    1
    15    19    20    1
    16    19    21    1
    17    19    22    1
    18    16    17   ar
    19    17    18   ar
    20     3     4   ar
    21     4     6    1
    22     6     7   ar
    23     7     8   ar
    24     8     9   ar
    25     9    10    1
    26     9    11   ar
    27    11    12   ar
    28     4     5   ar
    29    29    30    1
    30    30    31    1
    31    31    25    1
    32     5     1   ar
    33    18    13   ar
    34    12     6   ar
@<TRIPOS>MOLECULE
*****
 31 34 0 0 0
SMALL
GASTEIGER

@<TRIPOS>ATOM
      1 C         139.8668  139.1916  159.2038 C.ar    1  UNL1        0.0000
      2 C         140.8811  140.1895  159.6787 C.ar    1  UNL1        0.0000
      3 C         140.7659  140.2932  161.1708 C.ar    1  UNL1        0.0000
      4 N         139.6804  139.3595  161.6179 N.ar    1  UNL1        0.0000
      5 N         139.1247  138.6787  160.4023 N.ar    1  UNL1        0.0000
      6 C         139.2297  139.1444  163.0323 C.ar    1  UNL1        0.0000
      7 C         139.3952  137.7997  163.6759 C.ar    1  UNL1        0.0000
      8 C         138.9445  137.5845  165.0903 C.ar    1  UNL1        0.0000
      9 C         138.3283  138.7142  165.8612 C.ar    1  UNL1        0.0000
     10 F         137.8776  138.4991  167.2756 F       1  UNL1        0.0000
     11 C         138.1628  140.0590  165.2176 C.ar    1  UNL1        0.0000
     12 C         138.6135  140.2740  163.8031 C.ar    1  UNL1        0.0000
     13 C         141.5913  141.1757  162.0596 C.ar    1  UNL1        0.0000
     14 C         141.2442  142.6275  162.2062 C.ar    1  UNL1        0.0000
     15 C         142.0696  143.5100  163.0949 C.ar    1  UNL1        0.0000
     16 C         143.2421  142.9407  163.8371 C.ar    1  UNL1        0.0000
     17 C         143.5892  141.4887  163.6905 C.ar    1  UNL1        0.0000
     18 C         142.7639  140.6063  162.8018 C.ar    1  UNL1        0.0000
     19 C         144.0675  143.8231  164.7259 C.3     1  UNL1        0.0000
     20 F         144.8928  144.7056  165.6147 F       1  UNL1        0.0000
     21 F         143.2202  145.0005  164.3437 F       1  UNL1        0.0000
     22 F         144.9147  142.6458  165.1081 F       1  UNL1        0.0000
     23 C         139.6352  138.7792  157.7804 C.3     1  UNL1        0.0000
     24 C         142.4603  134.8776  154.6758 C.3     1  UNL1        0.0000
     25 SI        142.4435  135.8785  155.7929 Si      1  UNL1        0.0000
     26 C         143.8608  135.3981  155.8951 C.3     1  UNL1        0.0000
     27 C         142.9188  136.7126  156.9455 C.3     1  UNL1        0.0000
     28 C         141.9827  137.6794  157.6080 C.3     1  UNL1        0.0000
     29 N         140.5713  137.8123  157.1179 N.3     1  UNL1        0.0000
     30 C         140.0960  136.9783  155.9654 C.3     1  UNL1        0.0000
     31 C         141.0320  136.0114  155.3029 C.3     1  UNL1        0.0000
@<TRIPOS>BOND
     1    24    25    1
     2    25    26    1
     3    25    27    1
     4    27    28    1
     5    28    29    1
     6    29    23    1
     7    23     1    1
     8     1     2   ar
     9     2     3   ar
    10     3    13    1
    11    13    14   ar
    12    14    15   ar
    13    15    16   ar
    14    16    19    1
    15    19    20    1
    16    19    21    1
    17    19    22    1
    18    16    17   ar
    19    17    18   ar
    20     3     4   ar
    21     4     6    1
    22     6     7   ar
    23     7     8   ar
    24     8     9   ar
    25     9    10    1
    26     9    11   ar
    27    11    12   ar
    28     4     5   ar
    29    29    30    1
    30    30    31    1
    31    31    25    1
    32     5     1   ar
    33    18    13   ar
    34    12     6   ar
@<TRIPOS>MOLECULE
*****
 31 34 0 0 0
SMALL
GASTEIGER

@<TRIPOS>ATOM
      1 C         143.5565  141.6099  161.6690 C.ar    1  UNL1        0.0000
      2 C         143.9329  141.1129  163.0333 C.ar    1  UNL1        0.0000
      3 C         142.8626  141.5398  163.9937 C.ar    1  UNL1        0.0000
      4 N         141.8247  142.3006  163.2229 N.ar    1  UNL1        0.0000
      5 N         142.2536  142.3440  161.7862 N.ar    1  UNL1        0.0000
      6 C         140.5772  142.9109  163.7894 C.ar    1  UNL1        0.0000
      7 C         140.5911  144.3290  164.2782 C.ar    1  UNL1        0.0000
      8 C         139.3434  144.9393  164.8447 C.ar    1  UNL1        0.0000
      9 C         138.0819  144.1315  164.9224 C.ar    1  UNL1        0.0000
     10 F         136.8342  144.7419  165.4889 F       1  UNL1        0.0000
     11 C         138.0679  142.7134  164.4335 C.ar    1  UNL1        0.0000
     12 C         139.3156  142.1032  163.8671 C.ar    1  UNL1        0.0000
     13 C         142.8350  141.2557  165.4663 C.ar    1  UNL1        0.0000
     14 C         142.5927  139.8589  165.9562 C.ar    1  UNL1        0.0000
     15 C         142.5651  139.5748  167.4288 C.ar    1  UNL1        0.0000
     16 C         142.7798  140.6875  168.4114 C.ar    1  UNL1        0.0000
     17 C         143.0220  142.0844  167.9215 C.ar    1  UNL1        0.0000
     18 C         143.0496  142.3685  166.4489 C.ar    1  UNL1        0.0000
     19 C         142.7522  140.4034  169.8840 C.3     1  UNL1        0.0000
     20 F         142.7245  140.1193  171.3566 F       1  UNL1        0.0000
     21 F         142.4671  138.9584  169.5999 F       1  UNL1        0.0000
     22 F         143.0372  141.8484  170.1681 F       1  UNL1        0.0000
     23 C         144.3447  141.4084  160.4087 C.3     1  UNL1        0.0000
     24 C         142.2333  137.1512  157.2054 C.3     1  UNL1        0.0000
     25 SI        142.9111  138.4860  157.3016 Si      1  UNL1        0.0000
     26 C         142.8567  138.3282  155.8108 C.3     1  UNL1        0.0000
     27 C         143.5699  139.7658  156.8800 C.3     1  UNL1        0.0000
     28 C         144.0478  140.7400  157.9157 C.3     1  UNL1        0.0000
     29 N         143.8668  140.4342  159.3730 N.3     1  UNL1        0.0000
     30 C         143.2079  139.1543  159.7946 C.3     1  UNL1        0.0000
     31 C         142.7301  138.1802  158.7589 C.3     1  UNL1        0.0000
@<TRIPOS>BOND
     1    24    25    1
     2    25    26    1
     3    25    27    1
     4    27    28    1
     5    28    29    1
     6    29    23    1
     7    23     1    1
     8     1     2   ar
     9     2     3   ar
    10     3    13    1
    11    13    14   ar
    12    14    15   ar
    13    15    16   ar
    14    16    19    1
    15    19    20    1
    16    19    21    1
    17    19    22    1
    18    16    17   ar
    19    17    18   ar
    20     3     4   ar
    21     4     6    1
    22     6     7   ar
    23     7     8   ar
    24     8     9   ar
    25     9    10    1
    26     9    11   ar
    27    11    12   ar
    28     4     5   ar
    29    29    30    1
    30    30    31    1
    31    31    25    1
    32     5     1   ar
    33    18    13   ar
    34    12     6   ar
@<TRIPOS>MOLECULE
*****
 31 34 0 0 0
SMALL
GASTEIGER

@<TRIPOS>ATOM
      1 C         140.1900  138.9966  161.7930 C.ar    1  UNL1        0.0000
      2 C         139.9200  138.6834  163.2349 C.ar    1  UNL1        0.0000
      3 C         140.5591  139.7538  164.0692 C.ar    1  UNL1        0.0000
      4 N         141.2241  140.7284  163.1429 N.ar    1  UNL1        0.0000
      5 N         140.9960  140.2604  161.7361 N.ar    1  UNL1        0.0000
      6 C         141.9838  141.9554  163.5516 C.ar    1  UNL1        0.0000
      7 C         141.2717  143.2689  163.6842 C.ar    1  UNL1        0.0000
      8 C         142.0315  144.4960  164.0929 C.ar    1  UNL1        0.0000
      9 C         143.5033  144.4096  164.3690 C.ar    1  UNL1        0.0000
     10 F         144.2631  145.6367  164.7777 F       1  UNL1        0.0000
     11 C         144.2155  143.0960  164.2364 C.ar    1  UNL1        0.0000
     12 C         143.4556  141.8690  163.8277 C.ar    1  UNL1        0.0000
     13 C         140.5372  139.8351  165.5668 C.ar    1  UNL1        0.0000
     14 C         139.2317  139.9807  166.2909 C.ar    1  UNL1        0.0000
     15 C         139.2097  140.0621  167.7885 C.ar    1  UNL1        0.0000
     16 C         140.4932  139.9979  168.5621 C.ar    1  UNL1        0.0000
     17 C         141.7987  139.8524  167.8379 C.ar    1  UNL1        0.0000
     18 C         141.8207  139.7710  166.3403 C.ar    1  UNL1        0.0000
     19 C         140.4712  140.0793  170.0597 C.3     1  UNL1        0.0000
     20 F         140.4492  140.1607  171.5573 F       1  UNL1        0.0000
     21 F         139.3794  141.1054  169.9879 F       1  UNL1        0.0000
     22 F         141.5629  139.0532  170.1315 F       1  UNL1        0.0000
     23 C         139.7340  138.1879  160.6148 C.3     1  UNL1        0.0000
     24 C         138.6198  140.2164  155.3721 C.3     1  UNL1        0.0000
     25 SI        138.3843  140.2561  156.8530 Si      1  UNL1        0.0000
     26 C         137.4596  141.3520  156.4127 C.3     1  UNL1        0.0000
     27 C         137.8277  140.6763  158.1809 C.3     1  UNL1        0.0000
     28 C         138.2776  139.9869  159.4349 C.3     1  UNL1        0.0000
     29 N         139.2841  138.8773  159.3609 N.3     1  UNL1        0.0000
     30 C         139.8408  138.4570  158.0329 C.3     1  UNL1        0.0000
     31 C         139.3909  139.1464  156.7790 C.3     1  UNL1        0.0000
@<TRIPOS>BOND
     1    24    25    1
     2    25    26    1
     3    25    27    1
     4    27    28    1
     5    28    29    1
     6    29    23    1
     7    23     1    1
     8     1     2   ar
     9     2     3   ar
    10     3    13    1
    11    13    14   ar
    12    14    15   ar
    13    15    16   ar
    14    16    19    1
    15    19    20    1
    16    19    21    1
    17    19    22    1
    18    16    17   ar
    19    17    18   ar
    20     3     4   ar
    21     4     6    1
    22     6     7   ar
    23     7     8   ar
    24     8     9   ar
    25     9    10    1
    26     9    11   ar
    27    11    12   ar
    28     4     5   ar
    29    29    30    1
    30    30    31    1
    31    31    25    1
    32     5     1   ar
    33    18    13   ar
    34    12     6   ar
@<TRIPOS>MOLECULE
*****
 31 34 0 0 0
SMALL
GASTEIGER

@<TRIPOS>ATOM
      1 C         142.5833  138.6808  159.1349 C.ar    1  UNL1        0.0000
      2 C         141.4891  138.2388  160.0609 C.ar    1  UNL1        0.0000
      3 C         141.6672  138.9577  161.3654 C.ar    1  UNL1        0.0000
      4 N         142.8714  139.8441  161.2455 N.ar    1  UNL1        0.0000
      5 N         143.4375  139.6730  159.8670 N.ar    1  UNL1        0.0000
      6 C         143.4141  140.7436  162.3161 C.ar    1  UNL1        0.0000
      7 C         144.6729  140.3712  163.0416 C.ar    1  UNL1        0.0000
      8 C         145.2157  141.2708  164.1123 C.ar    1  UNL1        0.0000
      9 C         144.4995  142.5428  164.4573 C.ar    1  UNL1        0.0000
     10 F         145.0422  143.4424  165.5280 F       1  UNL1        0.0000
     11 C         143.2405  142.9153  163.7317 C.ar    1  UNL1        0.0000
     12 C         142.6979  142.0157  162.6611 C.ar    1  UNL1        0.0000
     13 C         140.7943  138.8153  162.5769 C.ar    1  UNL1        0.0000
     14 C         139.7268  139.8314  162.8558 C.ar    1  UNL1        0.0000
     15 C         138.8540  139.6890  164.0673 C.ar    1  UNL1        0.0000
     16 C         139.0486  138.5305  164.9999 C.ar    1  UNL1        0.0000
     17 C         140.1162  137.5143  164.7210 C.ar    1  UNL1        0.0000
     18 C         140.9890  137.6567  163.5095 C.ar    1  UNL1        0.0000
     19 C         138.1758  138.3880  166.2115 C.3     1  UNL1        0.0000
     20 F         137.3029  138.2456  167.4230 F       1  UNL1        0.0000
     21 F         138.2141  139.8738  166.4137 F       1  UNL1        0.0000
     22 F         138.1374  136.9023  166.0092 F       1  UNL1        0.0000
     23 C         142.7873  138.2129  157.7244 C.3     1  UNL1        0.0000
     24 C         138.5147  137.2027  154.0412 C.3     1  UNL1        0.0000
     25 SI        139.3297  138.1724  154.8447 Si      1  UNL1        0.0000
     26 C         138.3787  139.1215  154.1776 C.3     1  UNL1        0.0000
     27 C         139.8143  139.4717  155.4165 C.3     1  UNL1        0.0000
     28 C         140.9669  139.4852  156.3765 C.3     1  UNL1        0.0000
     29 N         141.6348  138.1994  156.7645 N.3     1  UNL1        0.0000
     30 C         141.1501  136.9002  156.1927 C.3     1  UNL1        0.0000
     31 C         139.9976  136.8867  155.2328 C.3     1  UNL1        0.0000
@<TRIPOS>BOND
     1    24    25    1
     2    25    26    1
     3    25    27    1
     4    27    28    1
     5    28    29    1
     6    29    23    1
     7    23     1    1
     8     1     2   ar
     9     2     3   ar
    10     3    13    1
    11    13    14   ar
    12    14    15   ar
    13    15    16   ar
    14    16    19    1
    15    19    20    1
    16    19    21    1
    17    19    22    1
    18    16    17   ar
    19    17    18   ar
    20     3     4   ar
    21     4     6    1
    22     6     7   ar
    23     7     8   ar
    24     8     9   ar
    25     9    10    1
    26     9    11   ar
    27    11    12   ar
    28     4     5   ar
    29    29    30    1
    30    30    31    1
    31    31    25    1
    32     5     1   ar
    33    18    13   ar
    34    12     6   ar
