@<TRIPOS>MOLECULE
*****
 40 45 0 0 0
SMALL
GASTEIGER

@<TRIPOS>ATOM
      1 C         141.2890  143.7299  160.8494 C.3     1  UNL1        0.0832
      2 C         141.0351  145.1506  160.4408 C.3     1  UNL1        0.0374
      3 C         140.8712  145.4959  158.9903 C.3     1  UNL1        0.0738
      4 N         140.9612  144.4205  157.9485 N.3     1  UNL1       -0.2722
      5 C         141.2151  142.9998  158.3572 C.3     1  UNL1        0.0829
      6 C         141.3790  142.6545  159.8076 C.3     1  UNL1        0.1103
      7 O         143.9669  144.0270  162.1687 O.2     1  UNL1       -0.2684
      8 C         142.7919  143.5331  162.9596 C.2     1  UNL1        0.2669
      9 N         141.4529  143.3846  162.3000 N.am    1  UNL1       -0.3006
     10 H         140.6817  143.0604  162.8190 H       1  UNL1        0.1497
     11 C         142.9558  143.1878  164.4100 C.ar    1  UNL1        0.1761
     12 C         141.9846  142.4081  165.2460 C.ar    1  UNL1        0.0673
     13 C         142.5483  142.2999  166.6318 C.ar    1  UNL1        0.1792
     14 O         143.8680  143.0129  166.6523 O.2     1  UNL1       -0.3532
     15 N         144.1198  143.5616  165.2792 N.ar    1  UNL1       -0.0723
     16 C         141.9054  141.6015  167.7932 C.ar    1  UNL1        0.0648
     17 C         142.4943  140.3271  168.3215 C.ar    1  UNL1        0.0077
     18 C         141.8513  139.6287  169.4829 C.ar    1  UNL1        0.0299
     19 C         140.6194  140.2047  170.1159 C.ar    1  UNL1        0.1424
     20 F         139.9765  139.5063  171.2773 F       1  UNL1       -0.2041
     21 C         140.0306  141.4790  169.5876 C.ar    1  UNL1        0.0593
     22 C         140.6736  142.1774  168.4263 C.ar    1  UNL1        0.1453
     23 F         140.0847  143.4519  167.8979 F       1  UNL1       -0.2040
     24 C         141.6329  141.2337  160.2164 C.2     1  UNL1        0.2252
     25 O         140.5376  140.4284  160.8501 O.2     1  UNL1       -0.2750
     26 N         142.9822  140.6183  159.9913 N.am    1  UNL1       -0.3010
     27 H         143.7011  141.1468  159.5753 H       1  UNL1        0.1497
     28 C         143.2361  139.1976  160.4000 C.3     1  UNL1        0.1089
     29 C         143.3305  137.7028  160.3183 C.3     1  UNL1        0.0274
     30 C         142.8647  138.4909  159.1300 C.3     1  UNL1        0.0274
     31 C         143.6957  139.4108  161.8118 C.ar    1  UNL1        0.1549
     32 N         144.7649  140.4202  162.1081 N.ar    1  UNL1       -0.2276
     33 C         145.2246  140.6335  163.5200 C.ar    1  UNL1        0.1019
     34 C         144.6150  139.8373  164.6355 C.ar    1  UNL1        0.0413
     35 C         143.5457  138.8279  164.3391 C.ar    1  UNL1        0.1019
     36 N         143.0861  138.6146  162.9273 N.ar    1  UNL1       -0.2276
     37 C         140.7973  144.7659  156.4980 C.3     1  UNL1        0.0721
     38 C         139.7541  145.7578  156.0765 C.3     1  UNL1        0.0160
     39 C         138.4767  146.0725  155.3559 C.3     1  UNL1        0.0014
     40 C         139.2246  147.1612  156.0668 C.3     1  UNL1        0.0014
@<TRIPOS>BOND
     1     7     8    2
     2     8     9   am
     3     1     9    1
     4     1     2    1
     5     2     3    1
     6     3     4    1
     7     4    37    1
     8    37    38    1
     9    38    39    1
    10    39    40    1
    11     4     5    1
    12     5     6    1
    13     6    24    1
    14    24    25    2
    15    24    26   am
    16    26    28    1
    17    28    31    1
    18    31    32   ar
    19    32    33   ar
    20    33    34   ar
    21    34    35   ar
    22    35    36   ar
    23    28    29    1
    24    29    30    1
    25     8    11    1
    26    11    12   ar
    27    12    13   ar
    28    13    16    1
    29    16    17   ar
    30    17    18   ar
    31    18    19   ar
    32    19    20    1
    33    19    21   ar
    34    21    22   ar
    35    22    23    1
    36    13    14   ar
    37    14    15   ar
    38     6     1    1
    39    30    28    1
    40    15    11   ar
    41    40    38    1
    42    36    31   ar
    43    22    16   ar
    44     9    10    1
    45    26    27    1
@<TRIPOS>MOLECULE
*****
 40 45 0 0 0
SMALL
GASTEIGER

@<TRIPOS>ATOM
      1 C         142.2330  139.3991  164.6269 C.3     1  UNL1        0.0832
      2 C         143.0467  138.4763  165.4850 C.3     1  UNL1        0.0374
      3 C         143.1705  138.7355  166.9572 C.3     1  UNL1        0.0738
      4 N         142.4807  139.9174  167.5713 N.3     1  UNL1       -0.2722
      5 C         141.6669  140.8401  166.7133 C.3     1  UNL1        0.0829
      6 C         141.5431  140.5810  165.2411 C.3     1  UNL1        0.1103
      7 O         144.5060  140.0732  162.7888 O.2     1  UNL1       -0.2684
      8 C         143.2456  139.4770  162.2355 C.2     1  UNL1        0.2669
      9 N         142.1091  139.1400  163.1546 N.am    1  UNL1       -0.3006
     10 H         141.2818  138.7487  162.7915 H       1  UNL1        0.1497
     11 C         143.1218  139.2180  160.7633 C.ar    1  UNL1        0.1761
     12 C         141.8755  138.7935  160.0445 C.ar    1  UNL1        0.0673
     13 C         142.2060  138.6510  158.5883 C.ar    1  UNL1        0.1792
     14 O         143.6565  138.9875  158.4072 O.2     1  UNL1       -0.3532
     15 N         144.2225  139.3379  159.7514 N.ar    1  UNL1       -0.0723
     16 C         141.2532  138.2437  157.5038 C.ar    1  UNL1        0.0648
     17 C         140.1062  139.1385  157.1380 C.ar    1  UNL1        0.0077
     18 C         139.1535  138.7311  156.0534 C.ar    1  UNL1        0.0299
     19 C         139.3477  137.4290  155.3346 C.ar    1  UNL1        0.1424
     20 F         138.3950  137.0216  154.2501 F       1  UNL1       -0.2041
     21 C         140.4947  136.5342  155.7004 C.ar    1  UNL1        0.0593
     22 C         141.4474  136.9416  156.7850 C.ar    1  UNL1        0.1453
     23 F         142.5944  136.0468  157.1508 F       1  UNL1       -0.2040
     24 C         140.7294  141.5038  164.3829 C.2     1  UNL1        0.2252
     25 O         141.4055  142.3688  163.3609 O.2     1  UNL1       -0.2750
     26 N         139.2395  141.5616  164.5468 N.am    1  UNL1       -0.3010
     27 H         138.7957  140.9938  165.2177 H       1  UNL1        0.1497
     28 C         138.4257  142.4843  163.6888 C.3     1  UNL1        0.1089
     29 C         137.6719  143.7058  163.2532 C.3     1  UNL1        0.0274
     30 C         138.3156  143.6649  164.6075 C.3     1  UNL1        0.0274
     31 C         138.2533  141.6242  162.4721 C.ar    1  UNL1        0.1549
     32 N         138.5144  142.1925  161.1087 N.ar    1  UNL1       -0.2276
     33 C         138.3420  141.3324  159.8919 C.ar    1  UNL1        0.1019
     34 C         137.9083  139.9040  160.0385 C.ar    1  UNL1        0.0413
     35 C         137.6472  139.3357  161.4019 C.ar    1  UNL1        0.1019
     36 N         137.8196  140.1957  162.6187 N.ar    1  UNL1       -0.2276
     37 C         142.6045  140.1765  169.0436 C.3     1  UNL1        0.0721
     38 C         143.0197  141.5318  169.5343 C.3     1  UNL1        0.0160
     39 C         142.6594  142.8878  170.0647 C.3     1  UNL1        0.0014
     40 C         144.0990  142.5232  169.8538 C.3     1  UNL1        0.0014
@<TRIPOS>BOND
     1     7     8    2
     2     8     9   am
     3     1     9    1
     4     1     2    1
     5     2     3    1
     6     3     4    1
     7     4    37    1
     8    37    38    1
     9    38    39    1
    10    39    40    1
    11     4     5    1
    12     5     6    1
    13     6    24    1
    14    24    25    2
    15    24    26   am
    16    26    28    1
    17    28    31    1
    18    31    32   ar
    19    32    33   ar
    20    33    34   ar
    21    34    35   ar
    22    35    36   ar
    23    28    29    1
    24    29    30    1
    25     8    11    1
    26    11    12   ar
    27    12    13   ar
    28    13    16    1
    29    16    17   ar
    30    17    18   ar
    31    18    19   ar
    32    19    20    1
    33    19    21   ar
    34    21    22   ar
    35    22    23    1
    36    13    14   ar
    37    14    15   ar
    38     6     1    1
    39    30    28    1
    40    15    11   ar
    41    40    38    1
    42    36    31   ar
    43    22    16   ar
    44     9    10    1
    45    26    27    1
@<TRIPOS>MOLECULE
*****
 40 45 0 0 0
SMALL
GASTEIGER

@<TRIPOS>ATOM
      1 C         139.4093  140.2633  164.5131 C.3     1  UNL1        0.0832
      2 C         138.4094  139.4988  165.3291 C.3     1  UNL1        0.0374
      3 C         138.5071  139.4972  166.8259 C.3     1  UNL1        0.0738
      4 N         139.6047  140.2601  167.5067 N.3     1  UNL1       -0.2722
      5 C         140.6045  141.0246  166.6907 C.3     1  UNL1        0.0829
      6 C         140.5068  141.0262  165.1939 C.3     1  UNL1        0.1103
      7 O         137.0994  141.6196  163.1621 O.2     1  UNL1       -0.2684
      8 C         138.1567  140.9431  162.3407 C.2     1  UNL1        0.2669
      9 N         139.3116  140.2649  163.0162 N.am    1  UNL1       -0.3006
     10 H         140.0055  139.8209  162.4772 H       1  UNL1        0.1497
     11 C         138.0590  140.9447  160.8440 C.ar    1  UNL1        0.1761
     12 C         138.4773  142.0617  159.9343 C.ar    1  UNL1        0.0673
     13 C         138.2027  141.6370  158.5221 C.ar    1  UNL1        0.1792
     14 O         137.6146  140.2575  158.5591 O.2     1  UNL1       -0.3532
     15 N         137.5258  139.8297  159.9940 N.ar    1  UNL1       -0.0723
     16 C         138.4693  142.4491  157.2895 C.ar    1  UNL1        0.0648
     17 C         139.7657  143.1897  157.1452 C.ar    1  UNL1        0.0077
     18 C         140.0323  144.0018  155.9126 C.ar    1  UNL1        0.0299
     19 C         139.0025  144.0733  154.8243 C.ar    1  UNL1        0.1424
     20 F         139.2691  144.8854  153.5917 F       1  UNL1       -0.2041
     21 C         137.7061  143.3328  154.9687 C.ar    1  UNL1        0.0593
     22 C         137.4395  142.5207  156.2013 C.ar    1  UNL1        0.1453
     23 F         136.1431  141.7801  156.3457 F       1  UNL1       -0.2040
     24 C         141.5066  141.7906  164.3778 C.2     1  UNL1        0.2252
     25 O         142.2237  141.1163  163.2461 O.2     1  UNL1       -0.2750
     26 N         141.7893  143.2295  164.6935 N.am    1  UNL1       -0.3010
     27 H         141.3186  143.6722  165.4364 H       1  UNL1        0.1497
     28 C         142.7891  143.9940  163.8775 C.3     1  UNL1        0.1089
     29 C         144.0982  144.5830  163.4422 C.3     1  UNL1        0.0274
     30 C         144.0268  143.7542  164.6905 C.3     1  UNL1        0.0274
     31 C         141.8988  144.4994  162.7813 C.ar    1  UNL1        0.1549
     32 N         140.6171  145.2013  163.1196 N.ar    1  UNL1       -0.2276
     33 C         139.7266  145.7067  162.0232 C.ar    1  UNL1        0.1019
     34 C         140.1180  145.5101  160.5887 C.ar    1  UNL1        0.0413
     35 C         141.3997  144.8081  160.2503 C.ar    1  UNL1        0.1019
     36 N         142.2901  144.3027  161.3466 N.ar    1  UNL1       -0.2276
     37 C         139.7023  140.2585  169.0035 C.3     1  UNL1        0.0721
     38 C         141.0221  140.0023  169.6687 C.3     1  UNL1        0.0160
     39 C         142.1032  140.4287  170.6171 C.3     1  UNL1        0.0014
     40 C         142.2269  139.1324  169.8726 C.3     1  UNL1        0.0014
@<TRIPOS>BOND
     1     7     8    2
     2     8     9   am
     3     1     9    1
     4     1     2    1
     5     2     3    1
     6     3     4    1
     7     4    37    1
     8    37    38    1
     9    38    39    1
    10    39    40    1
    11     4     5    1
    12     5     6    1
    13     6    24    1
    14    24    25    2
    15    24    26   am
    16    26    28    1
    17    28    31    1
    18    31    32   ar
    19    32    33   ar
    20    33    34   ar
    21    34    35   ar
    22    35    36   ar
    23    28    29    1
    24    29    30    1
    25     8    11    1
    26    11    12   ar
    27    12    13   ar
    28    13    16    1
    29    16    17   ar
    30    17    18   ar
    31    18    19   ar
    32    19    20    1
    33    19    21   ar
    34    21    22   ar
    35    22    23    1
    36    13    14   ar
    37    14    15   ar
    38     6     1    1
    39    30    28    1
    40    15    11   ar
    41    40    38    1
    42    36    31   ar
    43    22    16   ar
    44     9    10    1
    45    26    27    1
@<TRIPOS>MOLECULE
*****
 40 45 0 0 0
SMALL
GASTEIGER

@<TRIPOS>ATOM
      1 C         142.3588  139.0359  161.1831 C.3     1  UNL1        0.0832
      2 C         142.6451  137.6911  160.5836 C.3     1  UNL1        0.0374
      3 C         142.9220  137.5683  159.1146 C.3     1  UNL1        0.0738
      4 N         142.9126  138.7905  158.2449 N.3     1  UNL1       -0.2722
      5 C         142.6263  140.1353  158.8443 C.3     1  UNL1        0.0829
      6 C         142.3494  140.2581  160.3134 C.3     1  UNL1        0.1103
      7 O         144.6341  139.1160  163.1367 O.2     1  UNL1       -0.2684
      8 C         143.2195  139.1987  163.6290 C.2     1  UNL1        0.2669
      9 N         142.0819  139.1587  162.6522 N.am    1  UNL1       -0.3006
     10 H         141.1535  139.2130  162.9753 H       1  UNL1        0.1497
     11 C         142.9427  139.3215  165.0981 C.ar    1  UNL1        0.1761
     12 C         142.0839  140.3648  165.7493 C.ar    1  UNL1        0.0673
     13 C         142.0865  140.1107  167.2276 C.ar    1  UNL1        0.1792
     14 O         142.9468  138.9102  167.4900 O.2     1  UNL1       -0.3532
     15 N         143.4760  138.4225  166.1739 N.ar    1  UNL1       -0.0723
     16 C         141.3568  140.9156  168.2619 C.ar    1  UNL1        0.0648
     17 C         140.0644  140.4100  168.8313 C.ar    1  UNL1        0.0077
     18 C         139.3348  141.2149  169.8656 C.ar    1  UNL1        0.0299
     19 C         139.8975  142.5253  170.3305 C.ar    1  UNL1        0.1424
     20 F         139.1679  143.3302  171.3647 F       1  UNL1       -0.2041
     21 C         141.1898  143.0308  169.7611 C.ar    1  UNL1        0.0593
     22 C         141.9195  142.2259  168.7268 C.ar    1  UNL1        0.1453
     23 F         143.2119  142.7315  168.1574 F       1  UNL1       -0.2040
     24 C         142.0631  141.6030  160.9129 C.2     1  UNL1        0.2252
     25 O         142.9470  142.1444  161.9971 O.2     1  UNL1       -0.2750
     26 N         140.8929  142.4064  160.4281 N.am    1  UNL1       -0.3010
     27 H         140.3127  142.0510  159.7165 H       1  UNL1        0.1497
     28 C         140.6065  143.7512  161.0276 C.3     1  UNL1        0.1089
     29 C         140.6419  145.2355  161.2417 C.3     1  UNL1        0.0274
     30 C         141.4335  144.6195  160.1263 C.3     1  UNL1        0.0274
     31 C         139.6802  143.3501  162.1370 C.ar    1  UNL1        0.1549
     32 N         139.9611  143.7879  163.5439 N.ar    1  UNL1       -0.2276
     33 C         139.0347  143.3868  164.6534 C.ar    1  UNL1        0.1019
     34 C         137.8275  142.5477  164.3560 C.ar    1  UNL1        0.0413
     35 C         137.5466  142.1098  162.9491 C.ar    1  UNL1        0.1019
     36 N         138.4729  142.5109  161.8396 N.ar    1  UNL1       -0.2276
     37 C         143.1895  138.6677  156.7758 C.3     1  UNL1        0.0721
     38 C         143.2537  137.3129  156.1353 C.3     1  UNL1        0.0160
     39 C         142.5758  136.1765  155.4288 C.3     1  UNL1        0.0014
     40 C         144.0428  136.1025  155.7325 C.3     1  UNL1        0.0014
@<TRIPOS>BOND
     1     7     8    2
     2     8     9   am
     3     1     9    1
     4     1     2    1
     5     2     3    1
     6     3     4    1
     7     4    37    1
     8    37    38    1
     9    38    39    1
    10    39    40    1
    11     4     5    1
    12     5     6    1
    13     6    24    1
    14    24    25    2
    15    24    26   am
    16    26    28    1
    17    28    31    1
    18    31    32   ar
    19    32    33   ar
    20    33    34   ar
    21    34    35   ar
    22    35    36   ar
    23    28    29    1
    24    29    30    1
    25     8    11    1
    26    11    12   ar
    27    12    13   ar
    28    13    16    1
    29    16    17   ar
    30    17    18   ar
    31    18    19   ar
    32    19    20    1
    33    19    21   ar
    34    21    22   ar
    35    22    23    1
    36    13    14   ar
    37    14    15   ar
    38     6     1    1
    39    30    28    1
    40    15    11   ar
    41    40    38    1
    42    36    31   ar
    43    22    16   ar
    44     9    10    1
    45    26    27    1
@<TRIPOS>MOLECULE
*****
 40 45 0 0 0
SMALL
GASTEIGER

@<TRIPOS>ATOM
      1 C         141.7966  142.0664  160.2712 C.3     1  UNL1        0.0832
      2 C         141.5156  143.4114  159.6697 C.3     1  UNL1        0.0374
      3 C         140.7967  144.4559  160.4710 C.3     1  UNL1        0.0738
      4 N         140.3588  144.1554  161.8738 N.3     1  UNL1       -0.2722
      5 C         140.6398  142.8103  162.4753 C.3     1  UNL1        0.0829
      6 C         141.3587  141.7659  161.6740 C.3     1  UNL1        0.1103
      7 O         140.2450  140.1837  158.5253 O.2     1  UNL1       -0.2684
      8 C         141.7398  140.0805  158.5970 C.2     1  UNL1        0.2669
      9 N         142.5156  141.0218  159.4699 N.am    1  UNL1       -0.3006
     10 H         143.4967  140.9541  159.5169 H       1  UNL1        0.1497
     11 C         142.4587  139.0359  157.7957 C.ar    1  UNL1        0.1761
     12 C         141.9927  137.6298  157.5601 C.ar    1  UNL1        0.0673
     13 C         143.0158  136.9389  156.7081 C.ar    1  UNL1        0.1792
     14 O         144.1142  137.9182  156.4171 O.2     1  UNL1       -0.3532
     15 N         143.7699  139.2142  157.0893 N.ar    1  UNL1       -0.0723
     16 C         142.9518  135.5183  156.2309 C.ar    1  UNL1        0.0648
     17 C         142.6375  135.2232  154.7941 C.ar    1  UNL1        0.0077
     18 C         142.5735  133.8026  154.3169 C.ar    1  UNL1        0.0299
     19 C         142.8238  132.6771  155.2764 C.ar    1  UNL1        0.1424
     20 F         142.7598  131.2565  154.7992 F       1  UNL1       -0.2041
     21 C         143.1381  132.9722  156.7130 C.ar    1  UNL1        0.0593
     22 C         143.2021  134.3928  157.1903 C.ar    1  UNL1        0.1453
     23 F         143.5163  134.6879  158.6270 F       1  UNL1       -0.2040
     24 C         141.6398  140.4207  162.2755 C.2     1  UNL1        0.2252
     25 O         142.9480  139.7377  162.0071 O.2     1  UNL1       -0.2750
     26 N         140.6126  139.7587  163.1454 N.am    1  UNL1       -0.3010
     27 H         139.7540  140.2071  163.3215 H       1  UNL1        0.1497
     28 C         140.8937  138.4137  163.7469 C.3     1  UNL1        0.1089
     29 C         140.9819  136.9229  163.8869 C.3     1  UNL1        0.0274
     30 C         140.4361  137.5268  162.6270 C.3     1  UNL1        0.0274
     31 C         141.4488  138.8334  165.0756 C.ar    1  UNL1        0.1549
     32 N         140.6924  139.8060  165.9311 N.ar    1  UNL1       -0.2276
     33 C         141.2475  140.2258  167.2599 C.ar    1  UNL1        0.1019
     34 C         142.5590  139.6728  167.7333 C.ar    1  UNL1        0.0413
     35 C         143.3154  138.7002  166.8778 C.ar    1  UNL1        0.1019
     36 N         142.7604  138.2804  165.5490 N.ar    1  UNL1       -0.2276
     37 C         139.6398  145.1999  162.6751 C.3     1  UNL1        0.0721
     38 C         138.9189  144.8157  163.9331 C.3     1  UNL1        0.0160
     39 C         137.8144  144.0696  164.6212 C.3     1  UNL1        0.0014
     40 C         138.7746  144.8963  165.4239 C.3     1  UNL1        0.0014
@<TRIPOS>BOND
     1     7     8    2
     2     8     9   am
     3     1     9    1
     4     1     2    1
     5     2     3    1
     6     3     4    1
     7     4    37    1
     8    37    38    1
     9    38    39    1
    10    39    40    1
    11     4     5    1
    12     5     6    1
    13     6    24    1
    14    24    25    2
    15    24    26   am
    16    26    28    1
    17    28    31    1
    18    31    32   ar
    19    32    33   ar
    20    33    34   ar
    21    34    35   ar
    22    35    36   ar
    23    28    29    1
    24    29    30    1
    25     8    11    1
    26    11    12   ar
    27    12    13   ar
    28    13    16    1
    29    16    17   ar
    30    17    18   ar
    31    18    19   ar
    32    19    20    1
    33    19    21   ar
    34    21    22   ar
    35    22    23    1
    36    13    14   ar
    37    14    15   ar
    38     6     1    1
    39    30    28    1
    40    15    11   ar
    41    40    38    1
    42    36    31   ar
    43    22    16   ar
    44     9    10    1
    45    26    27    1
@<TRIPOS>MOLECULE
*****
 40 45 0 0 0
SMALL
GASTEIGER

@<TRIPOS>ATOM
      1 C         139.4080  140.2512  164.5811 C.3     1  UNL1        0.0832
      2 C         138.4201  139.4708  165.3966 C.3     1  UNL1        0.0374
      3 C         138.5154  139.4728  166.8935 C.3     1  UNL1        0.0738
      4 N         139.5987  140.2552  167.5750 N.3     1  UNL1       -0.2722
      5 C         140.5866  141.0355  166.7595 C.3     1  UNL1        0.0829
      6 C         140.4913  141.0335  165.2626 C.3     1  UNL1        0.1103
      7 O         137.1734  141.7174  163.2185 O.2     1  UNL1       -0.2684
      8 C         138.1953  140.9823  162.4028 C.2     1  UNL1        0.2669
      9 N         139.3126  140.2492  163.0841 N.am    1  UNL1       -0.3006
     10 H         139.9834  139.7667  162.5488 H       1  UNL1        0.1497
     11 C         138.0999  140.9803  160.9059 C.ar    1  UNL1        0.1761
     12 C         138.4966  142.1047  159.9956 C.ar    1  UNL1        0.0673
     13 C         138.2330  141.6729  158.5835 C.ar    1  UNL1        0.1792
     14 O         137.6734  140.2817  158.6210 O.2     1  UNL1       -0.3532
     15 N         137.5912  139.8537  160.0563 N.ar    1  UNL1       -0.0723
     16 C         138.4847  142.4891  157.3504 C.ar    1  UNL1        0.0648
     17 C         137.3404  142.8785  156.4622 C.ar    1  UNL1        0.0077
     18 C         137.5922  143.6946  155.2291 C.ar    1  UNL1        0.0299
     19 C         138.9882  144.1213  154.8842 C.ar    1  UNL1        0.1424
     20 F         139.2400  144.9374  153.6511 F       1  UNL1       -0.2041
     21 C         140.1324  143.7319  155.7724 C.ar    1  UNL1        0.0593
     22 C         139.8807  142.9158  157.0055 C.ar    1  UNL1        0.1453
     23 F         141.0250  142.5264  157.8938 F       1  UNL1       -0.2040
     24 C         141.4792  141.8139  164.4470 C.2     1  UNL1        0.2252
     25 O         142.2092  141.1504  163.3170 O.2     1  UNL1       -0.2750
     26 N         141.7371  143.2577  164.7615 N.am    1  UNL1       -0.3010
     27 H         141.2580  143.6931  165.5032 H       1  UNL1        0.1497
     28 C         142.7250  144.0381  163.9460 C.3     1  UNL1        0.1089
     29 C         144.0246  144.6483  163.5117 C.3     1  UNL1        0.0274
     30 C         143.9655  143.8193  164.7604 C.3     1  UNL1        0.0274
     31 C         141.8276  144.5278  162.8485 C.ar    1  UNL1        0.1549
     32 N         142.2469  144.3822  161.4156 N.ar    1  UNL1       -0.2276
     33 C         141.3495  144.8720  160.3179 C.ar    1  UNL1        0.1019
     34 C         140.0328  145.5074  160.6532 C.ar    1  UNL1        0.0413
     35 C         139.6135  145.6530  162.0860 C.ar    1  UNL1        0.1019
     36 N         140.5108  145.1633  163.1836 N.ar    1  UNL1       -0.2276
     37 C         139.6941  140.2572  169.0720 C.3     1  UNL1        0.0721
     38 C         140.1949  141.4752  169.7900 C.3     1  UNL1        0.0160
     39 C         139.9750  142.8746  170.2832 C.3     1  UNL1        0.0014
     40 C         141.2823  142.1855  170.5404 C.3     1  UNL1        0.0014
@<TRIPOS>BOND
     1     7     8    2
     2     8     9   am
     3     1     9    1
     4     1     2    1
     5     2     3    1
     6     3     4    1
     7     4    37    1
     8    37    38    1
     9    38    39    1
    10    39    40    1
    11     4     5    1
    12     5     6    1
    13     6    24    1
    14    24    25    2
    15    24    26   am
    16    26    28    1
    17    28    31    1
    18    31    32   ar
    19    32    33   ar
    20    33    34   ar
    21    34    35   ar
    22    35    36   ar
    23    28    29    1
    24    29    30    1
    25     8    11    1
    26    11    12   ar
    27    12    13   ar
    28    13    16    1
    29    16    17   ar
    30    17    18   ar
    31    18    19   ar
    32    19    20    1
    33    19    21   ar
    34    21    22   ar
    35    22    23    1
    36    13    14   ar
    37    14    15   ar
    38     6     1    1
    39    30    28    1
    40    15    11   ar
    41    40    38    1
    42    36    31   ar
    43    22    16   ar
    44     9    10    1
    45    26    27    1
@<TRIPOS>MOLECULE
*****
 40 45 0 0 0
SMALL
GASTEIGER

@<TRIPOS>ATOM
      1 C         142.1536  138.7194  161.1423 C.3     1  UNL1        0.0832
      2 C         142.7665  137.4605  160.6045 C.3     1  UNL1        0.0374
      3 C         142.9526  137.2891  159.1260 C.3     1  UNL1        0.0738
      4 N         142.5258  138.3767  158.1853 N.3     1  UNL1       -0.2722
      5 C         141.9129  139.6357  158.7231 C.3     1  UNL1        0.0829
      6 C         141.7268  139.8071  160.2015 C.3     1  UNL1        0.1103
      7 O         144.5350  139.1600  162.9128 O.2     1  UNL1       -0.2684
      8 C         143.1582  139.1111  163.5061 C.2     1  UNL1        0.2669
      9 N         141.9675  138.8909  162.6208 N.am    1  UNL1       -0.3006
     10 H         141.0638  138.8588  163.0102 H       1  UNL1        0.1497
     11 C         142.9721  139.2826  164.9845 C.ar    1  UNL1        0.1761
     12 C         142.0692  140.2786  165.6499 C.ar    1  UNL1        0.0673
     13 C         142.1953  140.0997  167.1339 C.ar    1  UNL1        0.1792
     14 O         143.1762  138.9931  167.3856 O.2     1  UNL1       -0.3532
     15 N         143.6563  138.4881  166.0572 N.ar    1  UNL1       -0.0723
     16 C         141.4682  140.8888  168.1820 C.ar    1  UNL1        0.0648
     17 C         140.1724  140.3794  168.7400 C.ar    1  UNL1        0.0077
     18 C         139.4453  141.1685  169.7881 C.ar    1  UNL1        0.0299
     19 C         140.0141  142.4670  170.2783 C.ar    1  UNL1        0.1424
     20 F         139.2870  143.2561  171.3265 F       1  UNL1       -0.2041
     21 C         141.3098  142.9764  169.7204 C.ar    1  UNL1        0.0593
     22 C         142.0369  142.1873  168.6722 C.ar    1  UNL1        0.1453
     23 F         143.3328  142.6967  168.1143 F       1  UNL1       -0.2040
     24 C         141.1138  141.0661  160.7394 C.2     1  UNL1        0.2252
     25 O         140.0312  140.9903  161.7747 O.2     1  UNL1       -0.2750
     26 N         141.5836  142.4009  160.2418 N.am    1  UNL1       -0.3010
     27 H         142.2942  142.4506  159.5622 H       1  UNL1        0.1497
     28 C         140.9707  143.6599  160.7795 C.3     1  UNL1        0.1089
     29 C         140.0509  144.8382  160.9042 C.3     1  UNL1        0.0274
     30 C         139.8742  143.8648  159.7766 C.3     1  UNL1        0.0274
     31 C         141.8543  143.8922  161.9692 C.ar    1  UNL1        0.1549
     32 N         141.3228  143.6666  163.3536 N.ar    1  UNL1       -0.2276
     33 C         142.2064  143.8990  164.5434 C.ar    1  UNL1        0.1019
     34 C         143.6214  144.3569  164.3485 C.ar    1  UNL1        0.0413
     35 C         144.1529  144.5825  162.9641 C.ar    1  UNL1        0.1019
     36 N         143.2694  144.3502  161.7744 N.ar    1  UNL1       -0.2276
     37 C         142.7120  138.2052  156.7067 C.3     1  UNL1        0.0721
     38 C         143.0275  136.8518  156.1425 C.3     1  UNL1        0.0160
     39 C         144.0340  135.8234  155.7189 C.3     1  UNL1        0.0014
     40 C         142.5677  135.5357  155.5888 C.3     1  UNL1        0.0014
@<TRIPOS>BOND
     1     7     8    2
     2     8     9   am
     3     1     9    1
     4     1     2    1
     5     2     3    1
     6     3     4    1
     7     4    37    1
     8    37    38    1
     9    38    39    1
    10    39    40    1
    11     4     5    1
    12     5     6    1
    13     6    24    1
    14    24    25    2
    15    24    26   am
    16    26    28    1
    17    28    31    1
    18    31    32   ar
    19    32    33   ar
    20    33    34   ar
    21    34    35   ar
    22    35    36   ar
    23    28    29    1
    24    29    30    1
    25     8    11    1
    26    11    12   ar
    27    12    13   ar
    28    13    16    1
    29    16    17   ar
    30    17    18   ar
    31    18    19   ar
    32    19    20    1
    33    19    21   ar
    34    21    22   ar
    35    22    23    1
    36    13    14   ar
    37    14    15   ar
    38     6     1    1
    39    30    28    1
    40    15    11   ar
    41    40    38    1
    42    36    31   ar
    43    22    16   ar
    44     9    10    1
    45    26    27    1
@<TRIPOS>MOLECULE
*****
 40 45 0 0 0
SMALL
GASTEIGER

@<TRIPOS>ATOM
      1 C         139.9397  139.9984  164.5538 C.3     1  UNL1        0.0832
      2 C         139.0049  139.2455  165.4534 C.3     1  UNL1        0.0374
      3 C         138.9451  139.5731  166.9159 C.3     1  UNL1        0.0738
      4 N         139.8201  140.6535  167.4789 N.3     1  UNL1       -0.2722
      5 C         140.7549  141.4065  166.5794 C.3     1  UNL1        0.0829
      6 C         140.8147  141.0789  165.1168 C.3     1  UNL1        0.1103
      7 O         137.6666  140.7624  162.7514 O.2     1  UNL1       -0.2684
      8 C         138.8630  140.0529  162.1900 C.2     1  UNL1        0.2669
      9 N         139.9996  139.6708  163.0912 N.am    1  UNL1       -0.3006
     10 H         140.7849  139.2051  162.7228 H       1  UNL1        0.1497
     11 C         138.9228  139.7253  160.7274 C.ar    1  UNL1        0.1761
     12 C         139.9234  138.8248  160.0657 C.ar    1  UNL1        0.0673
     13 C         139.6116  138.7837  158.5991 C.ar    1  UNL1        0.1792
     14 O         138.4181  139.6589  158.3544 O.2     1  UNL1       -0.3532
     15 N         137.9925  140.2409  159.6697 N.ar    1  UNL1       -0.0723
     16 C         140.3614  138.0044  157.5597 C.ar    1  UNL1        0.0648
     17 C         139.6140  137.2992  156.4669 C.ar    1  UNL1        0.0077
     18 C         140.3638  136.5198  155.4276 C.ar    1  UNL1        0.0299
     19 C         141.8610  136.4456  155.4810 C.ar    1  UNL1        0.1424
     20 F         142.6108  135.6662  154.4416 F       1  UNL1       -0.2041
     21 C         142.6083  137.1507  156.5737 C.ar    1  UNL1        0.0593
     22 C         141.8585  137.9301  157.6131 C.ar    1  UNL1        0.1453
     23 F         142.6059  138.6353  158.7059 F       1  UNL1       -0.2040
     24 C         141.7495  141.8318  164.2172 C.2     1  UNL1        0.2252
     25 O         142.4482  141.1200  163.0968 O.2     1  UNL1       -0.2750
     26 N         141.9857  143.2966  164.4380 N.am    1  UNL1       -0.3010
     27 H         141.5272  143.7637  165.1733 H       1  UNL1        0.1497
     28 C         142.9205  144.0495  163.5384 C.3     1  UNL1        0.1089
     29 C         144.1956  144.6128  162.9846 C.3     1  UNL1        0.0274
     30 C         144.2252  143.7649  164.2217 C.3     1  UNL1        0.0274
     31 C         141.9405  144.5956  162.5428 C.ar    1  UNL1        0.1549
     32 N         140.6771  145.2512  163.0160 N.ar    1  UNL1       -0.2276
     33 C         139.6970  145.7973  162.0203 C.ar    1  UNL1        0.1019
     34 C         139.9804  145.6878  160.5515 C.ar    1  UNL1        0.0413
     35 C         141.2438  145.0322  160.0782 C.ar    1  UNL1        0.1019
     36 N         142.2239  144.4861  161.0738 N.ar    1  UNL1       -0.2276
     37 C         139.7602  140.9811  168.9415 C.3     1  UNL1        0.0721
     38 C         140.3964  142.2387  169.4551 C.3     1  UNL1        0.0160
     39 C         141.5842  142.9531  170.0284 C.3     1  UNL1        0.0014
     40 C         140.3104  143.7024  169.7715 C.3     1  UNL1        0.0014
@<TRIPOS>BOND
     1     7     8    2
     2     8     9   am
     3     1     9    1
     4     1     2    1
     5     2     3    1
     6     3     4    1
     7     4    37    1
     8    37    38    1
     9    38    39    1
    10    39    40    1
    11     4     5    1
    12     5     6    1
    13     6    24    1
    14    24    25    2
    15    24    26   am
    16    26    28    1
    17    28    31    1
    18    31    32   ar
    19    32    33   ar
    20    33    34   ar
    21    34    35   ar
    22    35    36   ar
    23    28    29    1
    24    29    30    1
    25     8    11    1
    26    11    12   ar
    27    12    13   ar
    28    13    16    1
    29    16    17   ar
    30    17    18   ar
    31    18    19   ar
    32    19    20    1
    33    19    21   ar
    34    21    22   ar
    35    22    23    1
    36    13    14   ar
    37    14    15   ar
    38     6     1    1
    39    30    28    1
    40    15    11   ar
    41    40    38    1
    42    36    31   ar
    43    22    16   ar
    44     9    10    1
    45    26    27    1
@<TRIPOS>MOLECULE
*****
 40 45 0 0 0
SMALL
GASTEIGER

@<TRIPOS>ATOM
      1 C         142.8443  140.8951  159.9628 C.3     1  UNL1        0.0832
      2 C         143.5075  139.9045  159.0525 C.3     1  UNL1        0.0374
      3 C         144.1680  140.3718  157.7894 C.3     1  UNL1        0.0738
      4 N         144.1652  141.8298  157.4367 N.3     1  UNL1       -0.2722
      5 C         143.5019  142.8204  158.3470 C.3     1  UNL1        0.0829
      6 C         142.8415  142.3531  159.6101 C.3     1  UNL1        0.1103
      7 O         144.5084  140.2344  162.3699 O.2     1  UNL1       -0.2684
      8 C         143.0158  140.0975  162.4295 C.2     1  UNL1        0.2669
      9 N         142.1838  140.4278  161.2259 N.am    1  UNL1       -0.3006
     10 H         141.2041  140.3380  161.2650 H       1  UNL1        0.1497
     11 C         142.3554  139.6302  163.6926 C.ar    1  UNL1        0.1761
     12 C         142.4121  140.3188  165.0240 C.ar    1  UNL1        0.0673
     13 C         141.6140  139.5065  166.0003 C.ar    1  UNL1        0.1792
     14 O         141.0642  138.3158  165.2723 O.2     1  UNL1       -0.3532
     15 N         141.5224  138.3923  163.8460 N.ar    1  UNL1       -0.0723
     16 C         141.4029  139.8283  167.4501 C.ar    1  UNL1        0.0648
     17 C         142.5831  139.9980  168.3603 C.ar    1  UNL1        0.0077
     18 C         142.3720  140.3198  169.8100 C.ar    1  UNL1        0.0299
     19 C         140.9807  140.4719  170.3496 C.ar    1  UNL1        0.1424
     20 F         140.7696  140.7936  171.7994 F       1  UNL1       -0.2041
     21 C         139.8006  140.3021  169.4395 C.ar    1  UNL1        0.0593
     22 C         140.0117  139.9803  167.9897 C.ar    1  UNL1        0.1453
     23 F         138.8315  139.8106  167.0796 F       1  UNL1       -0.2040
     24 C         142.1782  143.3437  160.5205 C.2     1  UNL1        0.2252
     25 O         143.0072  144.1837  161.4462 O.2     1  UNL1       -0.2750
     26 N         140.6858  143.4943  160.5051 N.am    1  UNL1       -0.3010
     27 H         140.1417  142.9429  159.8975 H       1  UNL1        0.1497
     28 C         140.0226  144.4848  161.4155 C.3     1  UNL1        0.1089
     29 C         139.5694  145.8000  161.9767 C.3     1  UNL1        0.0274
     30 C         140.3974  145.7635  160.7264 C.3     1  UNL1        0.0274
     31 C         139.4174  143.5503  162.4206 C.ar    1  UNL1        0.1549
     32 N         139.6858  142.0772  162.3319 N.ar    1  UNL1       -0.2276
     33 C         139.0806  141.1426  163.3370 C.ar    1  UNL1        0.1019
     34 C         138.2069  141.6812  164.4309 C.ar    1  UNL1        0.0413
     35 C         137.9384  143.1543  164.5196 C.ar    1  UNL1        0.1019
     36 N         138.5436  144.0889  163.5145 N.ar    1  UNL1       -0.2276
     37 C         144.8257  142.2971  156.1736 C.3     1  UNL1        0.0721
     38 C         146.3221  142.3138  156.0716 C.3     1  UNL1        0.0160
     39 C         147.5734  142.0603  155.2842 C.3     1  UNL1        0.0014
     40 C         147.6627  142.5964  156.6823 C.3     1  UNL1        0.0014
@<TRIPOS>BOND
     1     7     8    2
     2     8     9   am
     3     1     9    1
     4     1     2    1
     5     2     3    1
     6     3     4    1
     7     4    37    1
     8    37    38    1
     9    38    39    1
    10    39    40    1
    11     4     5    1
    12     5     6    1
    13     6    24    1
    14    24    25    2
    15    24    26   am
    16    26    28    1
    17    28    31    1
    18    31    32   ar
    19    32    33   ar
    20    33    34   ar
    21    34    35   ar
    22    35    36   ar
    23    28    29    1
    24    29    30    1
    25     8    11    1
    26    11    12   ar
    27    12    13   ar
    28    13    16    1
    29    16    17   ar
    30    17    18   ar
    31    18    19   ar
    32    19    20    1
    33    19    21   ar
    34    21    22   ar
    35    22    23    1
    36    13    14   ar
    37    14    15   ar
    38     6     1    1
    39    30    28    1
    40    15    11   ar
    41    40    38    1
    42    36    31   ar
    43    22    16   ar
    44     9    10    1
    45    26    27    1
