@<TRIPOS>MOLECULE
*****
 34 36 0 0 0
SMALL
GASTEIGER

@<TRIPOS>ATOM
      1 C         143.8090  138.7223  166.0487 C.3     1  UNL1        0.0337
      2 C         142.3460  139.0041  165.8744 C.3     1  UNL1        0.1467
      3 N         142.4301  137.9485  164.8119 N.am    1  UNL1       -0.2806
      4 C         141.0655  137.7863  164.2107 C.2     1  UNL1        0.3106
      5 O         140.6937  136.8357  163.1116 O.2     1  UNL1       -0.2521
      6 N         140.1380  138.7415  164.9016 N.am    1  UNL1       -0.2050
      7 C         140.9294  139.4941  165.9298 C.2     1  UNL1        0.2527
      8 O         140.3976  140.5513  166.8516 O.2     1  UNL1       -0.2723
      9 H         143.2390  137.4498  164.5544 H       1  UNL1        0.1516
     10 C         142.5678  140.0007  166.9733 C.ar    1  UNL1        0.0021
     11 C         142.8693  141.4314  166.6386 C.ar    1  UNL1       -0.0009
     12 C         143.0911  142.4280  167.7375 C.ar    1  UNL1        0.0196
     13 C         143.0114  141.9938  169.1711 C.ar    1  UNL1        0.1217
     14 C         142.7099  140.5631  169.5058 C.ar    1  UNL1        0.0196
     15 C         142.4881  139.5665  168.4069 C.ar    1  UNL1       -0.0009
     16 S         143.2332  142.9905  170.2700 S.O2    1  UNL1        0.0572
     17 N         143.4550  143.9871  171.3689 N.3     1  UNL1       -0.2035
     18 O         141.7559  143.0370  170.5260 O.2     1  UNL1       -0.1532
     19 O         144.7104  142.9439  170.0140 O.2     1  UNL1       -0.1532
     20 H         142.5582  144.2428  171.7821 H       1  UNL1        0.1442
     21 H         143.9033  144.8199  170.9872 H       1  UNL1        0.1442
     22 C         138.6759  138.9138  164.6146 C.3     1  UNL1        0.1714
     23 C         138.2313  139.4749  163.2964 C.2     1  UNL1        0.1935
     24 O         137.7757  138.5531  162.2042 O.2     1  UNL1       -0.2895
     25 C         138.2425  140.9577  163.0704 C.ar    1  UNL1        0.0364
     26 C         138.1248  141.5052  161.6788 C.ar    1  UNL1        0.0029
     27 C         138.1359  142.9880  161.4528 C.ar    1  UNL1        0.0000
     28 C         138.2647  143.9234  162.6183 C.ar    1  UNL1        0.0039
     29 C         138.3824  143.3759  164.0098 C.ar    1  UNL1        0.0715
     30 C         138.3713  141.8932  164.2359 C.ar    1  UNL1        0.0067
     31 C         138.5112  144.3113  165.1754 C.3     1  UNL1        0.4186
     32 F         138.6400  145.2467  166.3410 F       1  UNL1       -0.1659
     33 F         137.0219  144.4880  165.1982 F       1  UNL1       -0.1659
     34 F         140.0006  144.1346  165.1526 F       1  UNL1       -0.1659
@<TRIPOS>BOND
     1     1     2    1
     2     2    10    1
     3    10    11   ar
     4    11    12   ar
     5    12    13   ar
     6    13    16    1
     7    16    17    1
     8    16    18    2
     9    16    19    2
    10    13    14   ar
    11    14    15   ar
    12     2     3    1
    13     3     4   am
    14     4     5    2
    15     4     6   am
    16     6    22    1
    17    22    23    1
    18    23    24    2
    19    23    25    1
    20    25    26   ar
    21    26    27   ar
    22    27    28   ar
    23    28    29   ar
    24    29    31    1
    25    31    32    1
    26    31    33    1
    27    31    34    1
    28    29    30   ar
    29     6     7   am
    30     7     8    2
    31     7     2    1
    32    15    10   ar
    33    30    25   ar
    34    17    20    1
    35    17    21    1
    36     3     9    1
@<TRIPOS>MOLECULE
*****
 34 36 0 0 0
SMALL
GASTEIGER

@<TRIPOS>ATOM
      1 C         138.8183  138.8240  165.8936 C.3     1  UNL1        0.0337
      2 C         139.0094  140.3037  165.7385 C.3     1  UNL1        0.1467
      3 N         138.0054  140.1586  164.6336 N.am    1  UNL1       -0.2806
      4 C         137.7776  141.5143  164.0334 C.2     1  UNL1        0.3106
      5 O         136.8495  141.8314  162.8985 O.2     1  UNL1       -0.2521
      6 N         138.6409  142.4972  164.7673 N.am    1  UNL1       -0.2050
      7 C         139.4022  141.7490  165.8212 C.2     1  UNL1        0.2527
      8 O         140.3839  142.3420  166.7879 O.2     1  UNL1       -0.2723
      9 H         137.5720  139.3208  164.3518 H       1  UNL1        0.1516
     10 C         139.9736  140.1393  166.8759 C.ar    1  UNL1        0.0021
     11 C         141.4230  139.8714  166.5977 C.ar    1  UNL1       -0.0009
     12 C         142.3870  139.7071  167.7351 C.ar    1  UNL1        0.0196
     13 C         141.9016  139.8107  169.1506 C.ar    1  UNL1        0.1217
     14 C         140.4522  140.0786  169.4287 C.ar    1  UNL1        0.0196
     15 C         139.4882  140.2429  168.2914 C.ar    1  UNL1       -0.0009
     16 S         142.8657  139.6463  170.2880 S.O2    1  UNL1        0.0572
     17 N         143.8298  139.4820  171.4253 N.3     1  UNL1       -0.2035
     18 O         143.0594  138.2062  169.9157 O.2     1  UNL1       -0.1532
     19 O         142.6720  141.0864  170.6602 O.2     1  UNL1       -0.1532
     20 H         144.1725  138.5215  171.4444 H       1  UNL1        0.1442
     21 H         143.3573  139.6920  172.3045 H       1  UNL1        0.1442
     22 C         138.7276  143.9697  164.4952 C.3     1  UNL1        0.1714
     23 C         139.3391  144.4614  163.2168 C.2     1  UNL1        0.1935
     24 O         138.4958  145.1924  162.2145 O.2     1  UNL1       -0.2895
     25 C         140.7939  144.2221  162.9407 C.ar    1  UNL1        0.0364
     26 C         141.2548  143.9368  161.5421 C.ar    1  UNL1        0.0029
     27 C         142.7096  143.6974  161.2659 C.ar    1  UNL1        0.0000
     28 C         143.7035  143.7434  162.3884 C.ar    1  UNL1        0.0039
     29 C         143.2426  144.0288  163.7870 C.ar    1  UNL1        0.0715
     30 C         141.7879  144.2681  164.0632 C.ar    1  UNL1        0.0067
     31 C         144.2366  144.0748  164.9096 C.3     1  UNL1        0.4186
     32 F         145.2305  144.1208  166.0321 F       1  UNL1       -0.1659
     33 F         144.2503  142.5757  164.9588 F       1  UNL1       -0.1659
     34 F         144.2228  145.5739  164.8603 F       1  UNL1       -0.1659
@<TRIPOS>BOND
     1     1     2    1
     2     2    10    1
     3    10    11   ar
     4    11    12   ar
     5    12    13   ar
     6    13    16    1
     7    16    17    1
     8    16    18    2
     9    16    19    2
    10    13    14   ar
    11    14    15   ar
    12     2     3    1
    13     3     4   am
    14     4     5    2
    15     4     6   am
    16     6    22    1
    17    22    23    1
    18    23    24    2
    19    23    25    1
    20    25    26   ar
    21    26    27   ar
    22    27    28   ar
    23    28    29   ar
    24    29    31    1
    25    31    32    1
    26    31    33    1
    27    31    34    1
    28    29    30   ar
    29     6     7   am
    30     7     8    2
    31     7     2    1
    32    15    10   ar
    33    30    25   ar
    34    17    20    1
    35    17    21    1
    36     3     9    1
@<TRIPOS>MOLECULE
*****
 34 36 0 0 0
SMALL
GASTEIGER

@<TRIPOS>ATOM
      1 C         143.5641  138.4652  166.2783 C.3     1  UNL1        0.0337
      2 C         142.2130  138.9893  165.8912 C.3     1  UNL1        0.1467
      3 N         142.2476  137.8826  164.8794 N.am    1  UNL1       -0.2806
      4 C         140.9697  137.9312  164.0954 C.2     1  UNL1        0.3106
      5 O         140.5840  137.0055  162.9799 O.2     1  UNL1       -0.2521
      6 N         140.1453  139.0679  164.6227 N.am    1  UNL1       -0.2050
      7 C         140.9137  139.7219  165.7326 C.2     1  UNL1        0.2527
      8 O         140.4621  140.9015  166.5418 O.2     1  UNL1       -0.2723
      9 H         142.9804  137.2375  164.7521 H       1  UNL1        0.1516
     10 C         142.4609  139.9865  166.9841 C.ar    1  UNL1        0.0021
     11 C         142.9811  141.3529  166.6488 C.ar    1  UNL1       -0.0009
     12 C         143.2289  142.3500  167.7416 C.ar    1  UNL1        0.0196
     13 C         142.9566  141.9808  169.1697 C.ar    1  UNL1        0.1217
     14 C         142.4363  140.6144  169.5050 C.ar    1  UNL1        0.0196
     15 C         142.1885  139.6173  168.4122 C.ar    1  UNL1       -0.0009
     16 S         143.2044  142.9780  170.2625 S.O2    1  UNL1        0.0572
     17 N         143.4523  143.9751  171.3553 N.3     1  UNL1       -0.2035
     18 O         144.6768  142.9196  169.9819 O.2     1  UNL1       -0.1532
     19 O         141.7321  143.0364  170.5431 O.2     1  UNL1       -0.1532
     20 H         144.4524  144.1637  171.4231 H       1  UNL1        0.1442
     21 H         143.1164  143.5986  172.2418 H       1  UNL1        0.1442
     22 C         138.7904  139.4786  164.1271 C.3     1  UNL1        0.1714
     23 C         138.6568  140.6341  163.1800 C.2     1  UNL1        0.1935
     24 O         138.3505  140.3861  161.7327 O.2     1  UNL1       -0.2895
     25 C         138.8296  142.0376  163.6802 C.ar    1  UNL1        0.0364
     26 C         137.6833  142.7452  164.3400 C.ar    1  UNL1        0.0029
     27 C         137.8561  144.1487  164.8402 C.ar    1  UNL1        0.0000
     28 C         139.1752  144.8448  164.6806 C.ar    1  UNL1        0.0039
     29 C         140.3215  144.1372  164.0208 C.ar    1  UNL1        0.0715
     30 C         140.1488  142.7338  163.5206 C.ar    1  UNL1        0.0067
     31 C         141.6407  144.8333  163.8611 C.3     1  UNL1        0.4186
     32 F         142.9597  145.5294  163.7015 F       1  UNL1       -0.1659
     33 F         141.0064  145.8211  162.9274 F       1  UNL1       -0.1659
     34 F         142.2749  143.8455  164.7949 F       1  UNL1       -0.1659
@<TRIPOS>BOND
     1     1     2    1
     2     2    10    1
     3    10    11   ar
     4    11    12   ar
     5    12    13   ar
     6    13    16    1
     7    16    17    1
     8    16    18    2
     9    16    19    2
    10    13    14   ar
    11    14    15   ar
    12     2     3    1
    13     3     4   am
    14     4     5    2
    15     4     6   am
    16     6    22    1
    17    22    23    1
    18    23    24    2
    19    23    25    1
    20    25    26   ar
    21    26    27   ar
    22    27    28   ar
    23    28    29   ar
    24    29    31    1
    25    31    32    1
    26    31    33    1
    27    31    34    1
    28    29    30   ar
    29     6     7   am
    30     7     8    2
    31     7     2    1
    32    15    10   ar
    33    30    25   ar
    34    17    20    1
    35    17    21    1
    36     3     9    1
@<TRIPOS>MOLECULE
*****
 34 36 0 0 0
SMALL
GASTEIGER

@<TRIPOS>ATOM
      1 C         138.5624  138.7454  166.1771 C.3     1  UNL1        0.0337
      2 C         138.9262  140.1532  165.8084 C.3     1  UNL1        0.1467
      3 N         137.8659  139.9858  164.7608 N.am    1  UNL1       -0.2806
      4 C         137.7801  141.2635  163.9797 C.2     1  UNL1        0.3106
      5 O         136.8503  141.5362  162.8348 O.2     1  UNL1       -0.2521
      6 N         138.7875  142.2206  164.5446 N.am    1  UNL1       -0.2050
      7 C         139.4958  141.5343  165.6748 C.2     1  UNL1        0.2527
      8 O         140.5830  142.1256  166.5226 O.2     1  UNL1       -0.2723
      9 H         137.3217  139.1789  164.6119 H       1  UNL1        0.1516
     10 C         139.9106  140.0262  166.9332 C.ar    1  UNL1        0.0021
     11 C         139.4675  140.2580  168.3473 C.ar    1  UNL1       -0.0009
     12 C         140.4518  140.1310  169.4720 C.ar    1  UNL1        0.0196
     13 C         141.8792  139.7724  169.1825 C.ar    1  UNL1        0.1217
     14 C         142.3223  139.5406  167.7684 C.ar    1  UNL1        0.0196
     15 C         141.3380  139.6676  166.6437 C.ar    1  UNL1       -0.0009
     16 S         142.8636  139.6454  170.3073 S.O2    1  UNL1        0.0572
     17 N         143.8479  139.5186  171.4320 N.3     1  UNL1       -0.2035
     18 O         143.0647  138.1983  169.9680 O.2     1  UNL1       -0.1532
     19 O         142.6625  141.0926  170.6466 O.2     1  UNL1       -0.1532
     20 H         144.1999  138.5620  171.4694 H       1  UNL1        0.1442
     21 H         143.3881  139.7464  172.3135 H       1  UNL1        0.1442
     22 C         139.0419  143.6184  164.0638 C.3     1  UNL1        0.1714
     23 C         140.1270  143.8811  163.0620 C.2     1  UNL1        0.1935
     24 O         139.7760  144.1433  161.6274 O.2     1  UNL1       -0.2895
     25 C         141.5632  143.8816  163.4949 C.ar    1  UNL1        0.0364
     26 C         142.2537  145.1775  163.8013 C.ar    1  UNL1        0.0029
     27 C         143.6899  145.1779  164.2342 C.ar    1  UNL1        0.0000
     28 C         144.4356  143.8826  164.3607 C.ar    1  UNL1        0.0039
     29 C         143.7450  142.5868  164.0542 C.ar    1  UNL1        0.0715
     30 C         142.3089  142.5862  163.6214 C.ar    1  UNL1        0.0067
     31 C         144.4907  141.2913  164.1807 C.3     1  UNL1        0.4186
     32 F         145.2363  139.9959  164.3071 F       1  UNL1       -0.1659
     33 F         143.1978  140.5374  164.0807 F       1  UNL1       -0.1659
     34 F         145.7836  142.0453  164.2807 F       1  UNL1       -0.1659
@<TRIPOS>BOND
     1     1     2    1
     2     2    10    1
     3    10    11   ar
     4    11    12   ar
     5    12    13   ar
     6    13    16    1
     7    16    17    1
     8    16    18    2
     9    16    19    2
    10    13    14   ar
    11    14    15   ar
    12     2     3    1
    13     3     4   am
    14     4     5    2
    15     4     6   am
    16     6    22    1
    17    22    23    1
    18    23    24    2
    19    23    25    1
    20    25    26   ar
    21    26    27   ar
    22    27    28   ar
    23    28    29   ar
    24    29    31    1
    25    31    32    1
    26    31    33    1
    27    31    34    1
    28    29    30   ar
    29     6     7   am
    30     7     8    2
    31     7     2    1
    32    15    10   ar
    33    30    25   ar
    34    17    20    1
    35    17    21    1
    36     3     9    1
@<TRIPOS>MOLECULE
*****
 34 36 0 0 0
SMALL
GASTEIGER

@<TRIPOS>ATOM
      1 C         144.4172  140.8928  164.6375 C.3     1  UNL1        0.0337
      2 C         142.9898  141.2958  164.4140 C.3     1  UNL1        0.1467
      3 N         143.3955  141.3487  162.9709 N.am    1  UNL1       -0.2806
      4 C         142.1964  141.7558  162.1669 C.2     1  UNL1        0.3106
      5 O         142.1519  141.9330  160.6781 O.2     1  UNL1       -0.2521
      6 N         141.0496  141.9544  163.1131 N.am    1  UNL1       -0.2050
      7 C         141.5399  141.6701  164.5019 C.2     1  UNL1        0.2527
      8 O         140.7237  141.7468  165.7581 O.2     1  UNL1       -0.2723
      9 H         144.2915  141.1510  162.6140 H       1  UNL1        0.1516
     10 C         142.8825  141.1586  165.9039 C.ar    1  UNL1        0.0021
     11 C         143.1735  142.3347  166.7882 C.ar    1  UNL1       -0.0009
     12 C         143.0662  142.1975  168.2780 C.ar    1  UNL1        0.0196
     13 C         142.6680  140.8842  168.8835 C.ar    1  UNL1        0.1217
     14 C         142.3771  139.7081  167.9992 C.ar    1  UNL1        0.0196
     15 C         142.4843  139.8453  166.5094 C.ar    1  UNL1       -0.0009
     16 S         142.5608  140.7470  170.3734 S.O2    1  UNL1        0.0572
     17 N         142.4536  140.6098  171.8633 N.3     1  UNL1       -0.2035
     18 O         141.9172  142.0996  170.4517 O.2     1  UNL1       -0.1532
     19 O         143.2044  139.3944  170.2952 O.2     1  UNL1       -0.1532
     20 H         142.0166  141.4459  172.2511 H       1  UNL1        0.1442
     21 H         143.3855  140.4969  172.2622 H       1  UNL1        0.1442
     22 C         139.6569  142.3652  162.7366 C.3     1  UNL1        0.1714
     23 C         138.5617  141.3415  162.6829 C.2     1  UNL1        0.1935
     24 O         137.3679  141.5658  161.8029 O.2     1  UNL1       -0.2895
     25 C         138.6605  140.0936  163.5093 C.ar    1  UNL1        0.0364
     26 C         139.1982  138.8321  162.9014 C.ar    1  UNL1        0.0029
     27 C         139.2970  137.5842  163.7277 C.ar    1  UNL1        0.0000
     28 C         138.8580  137.5976  165.1620 C.ar    1  UNL1        0.0039
     29 C         138.3203  138.8591  165.7699 C.ar    1  UNL1        0.0715
     30 C         138.2215  140.1070  164.9436 C.ar    1  UNL1        0.0067
     31 C         137.8813  138.8726  167.2042 C.3     1  UNL1        0.4186
     32 F         137.4423  138.8861  168.6384 F       1  UNL1       -0.1659
     33 F         136.9982  137.6883  166.9450 F       1  UNL1       -0.1659
     34 F         138.7646  140.0570  167.4633 F       1  UNL1       -0.1659
@<TRIPOS>BOND
     1     1     2    1
     2     2    10    1
     3    10    11   ar
     4    11    12   ar
     5    12    13   ar
     6    13    16    1
     7    16    17    1
     8    16    18    2
     9    16    19    2
    10    13    14   ar
    11    14    15   ar
    12     2     3    1
    13     3     4   am
    14     4     5    2
    15     4     6   am
    16     6    22    1
    17    22    23    1
    18    23    24    2
    19    23    25    1
    20    25    26   ar
    21    26    27   ar
    22    27    28   ar
    23    28    29   ar
    24    29    31    1
    25    31    32    1
    26    31    33    1
    27    31    34    1
    28    29    30   ar
    29     6     7   am
    30     7     8    2
    31     7     2    1
    32    15    10   ar
    33    30    25   ar
    34    17    20    1
    35    17    21    1
    36     3     9    1
@<TRIPOS>MOLECULE
*****
 34 36 0 0 0
SMALL
GASTEIGER

@<TRIPOS>ATOM
      1 C         143.8362  143.5001  165.4134 C.3     1  UNL1        0.0337
      2 C         143.3988  142.0801  165.2079 C.3     1  UNL1        0.1467
      3 N         144.3126  142.1362  164.0197 N.am    1  UNL1       -0.2806
      4 C         144.2681  140.8012  163.3372 C.2     1  UNL1        0.3106
      5 O         145.0309  140.4152  162.1048 O.2     1  UNL1       -0.2521
      6 N         143.3267  139.9200  164.1036 N.am    1  UNL1       -0.2050
      7 C         142.7895  140.7104  165.2597 C.2     1  UNL1        0.2527
      8 O         141.8141  140.2176  166.2873 O.2     1  UNL1       -0.2723
      9 H         144.8477  142.9129  163.7374 H       1  UNL1        0.1516
     10 C         142.5764  142.3209  166.4390 C.ar    1  UNL1        0.0021
     11 C         141.1260  142.6820  166.3133 C.ar    1  UNL1       -0.0009
     12 C         140.3036  142.9228  167.5445 C.ar    1  UNL1        0.0196
     13 C         140.9317  142.8024  168.9013 C.ar    1  UNL1        0.1217
     14 C         142.3821  142.4413  169.0270 C.ar    1  UNL1        0.0196
     15 C         143.2044  142.2005  167.7959 C.ar    1  UNL1       -0.0009
     16 S         140.1093  143.0432  170.1325 S.O2    1  UNL1        0.0572
     17 N         139.2869  143.2839  171.3636 N.3     1  UNL1       -0.2035
     18 O         140.6094  144.4561  170.1903 O.2     1  UNL1       -0.1532
     19 O         139.6091  141.6302  170.0747 O.2     1  UNL1       -0.1532
     20 H         139.4211  144.2443  171.6797 H       1  UNL1        0.1442
     21 H         139.5789  142.6400  172.0988 H       1  UNL1        0.1442
     22 C         142.9830  138.4981  163.7720 C.3     1  UNL1        0.1714
     23 C         141.6317  138.1640  163.2131 C.2     1  UNL1        0.1935
     24 O         141.5144  137.2475  162.0314 O.2     1  UNL1       -0.2895
     25 C         140.3976  138.7464  163.8359 C.ar    1  UNL1        0.0364
     26 C         139.8695  140.0674  163.3605 C.ar    1  UNL1        0.0029
     27 C         138.6355  140.6498  163.9834 C.ar    1  UNL1        0.0000
     28 C         137.9294  139.9113  165.0815 C.ar    1  UNL1        0.0039
     29 C         138.4575  138.5902  165.5569 C.ar    1  UNL1        0.0715
     30 C         139.6915  138.0078  164.9341 C.ar    1  UNL1        0.0067
     31 C         137.7515  137.8515  166.6551 C.3     1  UNL1        0.4186
     32 F         137.0456  137.1130  167.7533 F       1  UNL1       -0.1659
     33 F         137.5964  139.1338  167.4178 F       1  UNL1       -0.1659
     34 F         137.9067  136.5693  165.8924 F       1  UNL1       -0.1659
@<TRIPOS>BOND
     1     1     2    1
     2     2    10    1
     3    10    11   ar
     4    11    12   ar
     5    12    13   ar
     6    13    16    1
     7    16    17    1
     8    16    18    2
     9    16    19    2
    10    13    14   ar
    11    14    15   ar
    12     2     3    1
    13     3     4   am
    14     4     5    2
    15     4     6   am
    16     6    22    1
    17    22    23    1
    18    23    24    2
    19    23    25    1
    20    25    26   ar
    21    26    27   ar
    22    27    28   ar
    23    28    29   ar
    24    29    31    1
    25    31    32    1
    26    31    33    1
    27    31    34    1
    28    29    30   ar
    29     6     7   am
    30     7     8    2
    31     7     2    1
    32    15    10   ar
    33    30    25   ar
    34    17    20    1
    35    17    21    1
    36     3     9    1
@<TRIPOS>MOLECULE
*****
 34 36 0 0 0
SMALL
GASTEIGER

@<TRIPOS>ATOM
      1 C         141.5315  137.7706  164.8866 C.3     1  UNL1        0.0337
      2 C         141.9495  139.1706  164.5470 C.3     1  UNL1        0.1467
      3 N         142.1175  138.6168  163.1632 N.am    1  UNL1       -0.2806
      4 C         142.5859  139.7291  162.2725 C.2     1  UNL1        0.3106
      5 O         142.8809  139.6194  160.8059 O.2     1  UNL1       -0.2521
      6 N         142.7074  140.9703  163.1058 N.am    1  UNL1       -0.2050
      7 C         142.3141  140.6252  164.5116 C.2     1  UNL1        0.2527
      8 O         142.2898  141.5689  165.6773 O.2     1  UNL1       -0.2723
      9 H         141.9497  137.6866  162.8878 H       1  UNL1        0.1516
     10 C         141.6942  139.4317  166.0019 C.ar    1  UNL1        0.0021
     11 C         142.7925  139.2321  167.0038 C.ar    1  UNL1       -0.0009
     12 C         142.5372  139.4932  168.4586 C.ar    1  UNL1        0.0196
     13 C         141.1834  139.9539  168.9116 C.ar    1  UNL1        0.1217
     14 C         140.0851  140.1535  167.9097 C.ar    1  UNL1        0.0196
     15 C         140.3405  139.8924  166.4549 C.ar    1  UNL1       -0.0009
     16 S         140.9281  140.2151  170.3665 S.O2    1  UNL1        0.0572
     17 N         140.6728  140.4762  171.8213 N.3     1  UNL1       -0.2035
     18 O         139.5228  139.7147  170.2097 O.2     1  UNL1       -0.1532
     19 O         142.3334  140.7155  170.5233 O.2     1  UNL1       -0.1532
     20 H         139.7140  140.2145  172.0506 H       1  UNL1        0.1442
     21 H         140.8111  141.4674  172.0183 H       1  UNL1        0.1442
     22 C         143.1454  142.3198  162.6189 C.3     1  UNL1        0.1714
     23 C         142.2078  143.1654  161.8089 C.2     1  UNL1        0.1935
     24 O         142.7194  143.9261  160.6217 O.2     1  UNL1       -0.2895
     25 C         140.7586  143.2503  162.1863 C.ar    1  UNL1        0.0364
     26 C         139.7171  142.6205  161.3096 C.ar    1  UNL1        0.0029
     27 C         138.2678  142.7054  161.6870 C.ar    1  UNL1        0.0000
     28 C         137.8600  143.4202  162.9411 C.ar    1  UNL1        0.0039
     29 C         138.9014  144.0500  163.8178 C.ar    1  UNL1        0.0715
     30 C         140.3506  143.9651  163.4405 C.ar    1  UNL1        0.0067
     31 C         138.4936  144.7648  165.0720 C.3     1  UNL1        0.4186
     32 F         138.0859  145.4795  166.3261 F       1  UNL1       -0.1659
     33 F         139.8878  145.2976  165.2216 F       1  UNL1       -0.1659
     34 F         137.0995  144.2319  164.9224 F       1  UNL1       -0.1659
@<TRIPOS>BOND
     1     1     2    1
     2     2    10    1
     3    10    11   ar
     4    11    12   ar
     5    12    13   ar
     6    13    16    1
     7    16    17    1
     8    16    18    2
     9    16    19    2
    10    13    14   ar
    11    14    15   ar
    12     2     3    1
    13     3     4   am
    14     4     5    2
    15     4     6   am
    16     6    22    1
    17    22    23    1
    18    23    24    2
    19    23    25    1
    20    25    26   ar
    21    26    27   ar
    22    27    28   ar
    23    28    29   ar
    24    29    31    1
    25    31    32    1
    26    31    33    1
    27    31    34    1
    28    29    30   ar
    29     6     7   am
    30     7     8    2
    31     7     2    1
    32    15    10   ar
    33    30    25   ar
    34    17    20    1
    35    17    21    1
    36     3     9    1
@<TRIPOS>MOLECULE
*****
 34 36 0 0 0
SMALL
GASTEIGER

@<TRIPOS>ATOM
      1 C         139.2047  137.6229  164.9929 C.3     1  UNL1        0.0337
      2 C         138.8559  139.0265  164.5953 C.3     1  UNL1        0.1467
      3 N         138.5569  138.4070  163.2623 N.am    1  UNL1       -0.2806
      4 C         138.1010  139.4959  162.3369 C.2     1  UNL1        0.3106
      5 O         137.6985  139.3227  160.9024 O.2     1  UNL1       -0.2521
      6 N         138.1182  140.7884  163.0979 N.am    1  UNL1       -0.2050
      7 C         138.5848  140.4983  164.4937 C.2     1  UNL1        0.2527
      8 O         138.7511  141.5035  165.5946 O.2     1  UNL1       -0.2723
      9 H         138.6444  137.4531  163.0348 H       1  UNL1        0.1516
     10 C         139.2279  139.3525  166.0114 C.ar    1  UNL1        0.0021
     11 C         140.6231  139.7964  166.3372 C.ar    1  UNL1       -0.0009
     12 C         140.9950  140.1224  167.7533 C.ar    1  UNL1        0.0196
     13 C         139.9717  140.0045  168.8436 C.ar    1  UNL1        0.1217
     14 C         138.5764  139.5607  168.5178 C.ar    1  UNL1        0.0196
     15 C         138.2045  139.2347  167.1018 C.ar    1  UNL1       -0.0009
     16 S         140.3436  140.3305  170.2597 S.O2    1  UNL1        0.0572
     17 N         140.7155  140.6565  171.6758 N.3     1  UNL1       -0.2035
     18 O         141.6525  140.8904  169.7871 O.2     1  UNL1       -0.1532
     19 O         139.0348  139.7707  170.7324 O.2     1  UNL1       -0.1532
     20 H         141.6390  141.0894  171.6938 H       1  UNL1        0.1442
     21 H         140.7308  139.7998  172.2292 H       1  UNL1        0.1442
     22 C         137.7360  142.1346  162.5580 C.3     1  UNL1        0.1714
     23 C         138.3762  143.3736  163.1105 C.2     1  UNL1        0.1935
     24 O         137.5801  144.3091  163.9714 O.2     1  UNL1       -0.2895
     25 C         139.8124  143.6770  162.8022 C.ar    1  UNL1        0.0364
     26 C         140.2041  144.1348  161.4285 C.ar    1  UNL1        0.0029
     27 C         141.6404  144.4382  161.1201 C.ar    1  UNL1        0.0000
     28 C         142.6850  144.2838  162.1854 C.ar    1  UNL1        0.0039
     29 C         142.2933  143.8259  163.5591 C.ar    1  UNL1        0.0715
     30 C         140.8572  143.5225  163.8675 C.ar    1  UNL1        0.0067
     31 C         143.3380  143.6715  164.6245 C.3     1  UNL1        0.4186
     32 F         144.3827  143.5170  165.6897 F       1  UNL1       -0.1659
     33 F         144.3586  144.2852  163.7125 F       1  UNL1       -0.1659
     34 F         142.3173  143.0577  165.5363 F       1  UNL1       -0.1659
@<TRIPOS>BOND
     1     1     2    1
     2     2    10    1
     3    10    11   ar
     4    11    12   ar
     5    12    13   ar
     6    13    16    1
     7    16    17    1
     8    16    18    2
     9    16    19    2
    10    13    14   ar
    11    14    15   ar
    12     2     3    1
    13     3     4   am
    14     4     5    2
    15     4     6   am
    16     6    22    1
    17    22    23    1
    18    23    24    2
    19    23    25    1
    20    25    26   ar
    21    26    27   ar
    22    27    28   ar
    23    28    29   ar
    24    29    31    1
    25    31    32    1
    26    31    33    1
    27    31    34    1
    28    29    30   ar
    29     6     7   am
    30     7     8    2
    31     7     2    1
    32    15    10   ar
    33    30    25   ar
    34    17    20    1
    35    17    21    1
    36     3     9    1
@<TRIPOS>MOLECULE
*****
 34 36 0 0 0
SMALL
GASTEIGER

@<TRIPOS>ATOM
      1 C         143.5749  138.8315  165.9042 C.3     1  UNL1        0.0337
      2 C         143.3305  140.2554  165.5008 C.3     1  UNL1        0.1467
      3 N         144.4752  140.0203  164.5604 N.am    1  UNL1       -0.2806
      4 C         144.7095  141.2858  163.7901 C.2     1  UNL1        0.3106
      5 O         145.7594  141.4971  162.7398 O.2     1  UNL1       -0.2521
      6 N         143.7097  142.3031  164.2544 N.am    1  UNL1       -0.2050
      7 C         142.8574  141.6662  165.3117 C.2     1  UNL1        0.2527
      8 O         141.7299  142.3246  166.0503 O.2     1  UNL1       -0.2723
      9 H         144.9834  139.1825  164.4654 H       1  UNL1        0.1516
     10 C         142.2369  140.1927  166.5257 C.ar    1  UNL1        0.0021
     11 C         140.8385  139.8440  166.1099 C.ar    1  UNL1       -0.0009
     12 C         139.7450  139.7814  167.1347 C.ar    1  UNL1        0.0196
     13 C         140.0499  140.0674  168.5753 C.ar    1  UNL1        0.1217
     14 C         141.4482  140.4161  168.9910 C.ar    1  UNL1        0.0196
     15 C         142.5418  140.4788  167.9662 C.ar    1  UNL1       -0.0009
     16 S         138.9563  140.0048  169.6001 S.O2    1  UNL1        0.0572
     17 N         137.8628  139.9421  170.6249 N.3     1  UNL1       -0.2035
     18 O         138.1183  139.1941  168.6564 O.2     1  UNL1       -0.1532
     19 O         139.7942  140.8154  170.5438 O.2     1  UNL1       -0.1532
     20 H         137.0776  139.4082  170.2522 H       1  UNL1        0.1442
     21 H         137.5541  140.8877  170.8510 H       1  UNL1        0.1442
     22 C         143.5842  143.7101  163.7500 C.3     1  UNL1        0.1714
     23 C         142.4487  144.0834  162.8437 C.2     1  UNL1        0.1935
     24 O         142.7296  144.6543  161.4854 O.2     1  UNL1       -0.2895
     25 C         141.0322  143.8859  163.2960 C.ar    1  UNL1        0.0364
     26 C         140.3535  144.9407  164.1186 C.ar    1  UNL1        0.0029
     27 C         138.9370  144.7432  164.5709 C.ar    1  UNL1        0.0000
     28 C         138.1992  143.4909  164.2005 C.ar    1  UNL1        0.0039
     29 C         138.8779  142.4360  163.3779 C.ar    1  UNL1        0.0715
     30 C         140.2943  142.6335  162.9256 C.ar    1  UNL1        0.0067
     31 C         138.1400  141.1836  163.0075 C.3     1  UNL1        0.4186
     32 F         137.4022  139.9312  162.6370 F       1  UNL1       -0.1659
     33 F         138.4309  141.4408  161.5586 F       1  UNL1       -0.1659
     34 F         137.8491  140.9265  164.4563 F       1  UNL1       -0.1659
@<TRIPOS>BOND
     1     1     2    1
     2     2    10    1
     3    10    11   ar
     4    11    12   ar
     5    12    13   ar
     6    13    16    1
     7    16    17    1
     8    16    18    2
     9    16    19    2
    10    13    14   ar
    11    14    15   ar
    12     2     3    1
    13     3     4   am
    14     4     5    2
    15     4     6   am
    16     6    22    1
    17    22    23    1
    18    23    24    2
    19    23    25    1
    20    25    26   ar
    21    26    27   ar
    22    27    28   ar
    23    28    29   ar
    24    29    31    1
    25    31    32    1
    26    31    33    1
    27    31    34    1
    28    29    30   ar
    29     6     7   am
    30     7     8    2
    31     7     2    1
    32    15    10   ar
    33    30    25   ar
    34    17    20    1
    35    17    21    1
    36     3     9    1
