@<TRIPOS>MOLECULE
*****
 32 37 0 0 0
SMALL
GASTEIGER

@<TRIPOS>ATOM
      1 CL        141.8383  137.6094  164.7796 Cl      1  UNL1       -0.0826
      2 C         142.2956  138.6523  163.8032 C.ar    1  UNL1        0.0538
      3 C         142.6744  138.2575  162.4066 C.ar    1  UNL1        0.0141
      4 C         143.1317  139.3004  161.4302 C.ar    1  UNL1        0.0378
      5 C         143.5105  138.9056  160.0336 C.ar    1  UNL1        0.1033
      6 N         143.9677  139.9485  159.0573 N.ar    1  UNL1       -0.2120
      7 C         144.0462  141.3863  159.4776 C.ar    1  UNL1        0.2208
      8 N         143.6674  141.7811  160.8742 N.ar    1  UNL1       -0.2136
      9 C         143.2101  140.7382  161.8505 C.ar    1  UNL1        0.0854
     10 C         142.8313  141.1330  163.2472 C.ar    1  UNL1        0.0158
     11 C         142.3740  140.0901  164.2235 C.ar    1  UNL1       -0.0103
     12 C         141.9952  140.4849  165.6202 C.3     1  UNL1        0.0260
     13 C         140.6871  141.1729  165.8764 C.3     1  UNL1        0.0217
     14 C         140.3083  141.5678  167.2730 C.3     1  UNL1        0.0725
     15 N         141.2375  141.2746  168.4134 N.3     1  UNL1       -0.2697
     16 C         142.5455  140.5866  168.1572 C.3     1  UNL1        0.0725
     17 C         142.9244  140.1918  166.7606 C.3     1  UNL1        0.0217
     18 C         140.8586  141.6694  169.8101 C.3     1  UNL1        0.1172
     19 C         139.9072  142.6614  170.4107 C.3     1  UNL1        0.1606
     20 O         140.3228  142.2278  171.7852 O.3     1  UNL1       -0.3507
     21 C         141.2743  141.2358  171.1846 C.3     1  UNL1        0.1606
     22 N         144.5034  142.4292  158.5013 N.pl3   1  UNL1       -0.2794
     23 H         144.2612  143.3733  158.6400 H       1  UNL1        0.1552
     24 C         145.3298  142.0337  157.3136 C.ar    1  UNL1        0.1001
     25 C         144.8674  141.1990  156.1563 C.ar    1  UNL1        0.1372
     26 N         146.0155  141.0529  155.2021 N.ar    1  UNL1       -0.1656
     27 N         147.1876  141.7973  155.7697 N.ar    1  UNL1       -0.2409
     28 C         146.7638  142.4035  157.0747 C.ar    1  UNL1        0.1497
     29 CL        147.6231  143.2337  157.9815 Cl      1  UNL1       -0.0603
     30 C         148.5451  141.9149  155.1425 C.3     1  UNL1        0.1063
     31 C         149.4103  142.3105  153.9828 C.3     1  UNL1        0.0264
     32 C         150.0310  141.7230  155.2157 C.3     1  UNL1        0.0264
@<TRIPOS>BOND
     1     1     2    1
     2     2     3   ar
     3     3     4   ar
     4     4     5   ar
     5     5     6   ar
     6     6     7   ar
     7     7    22    1
     8    22    24    1
     9    24    25   ar
    10    25    26   ar
    11    26    27   ar
    12    27    30    1
    13    30    31    1
    14    31    32    1
    15    27    28   ar
    16    28    29    1
    17     7     8   ar
    18     8     9   ar
    19     9    10   ar
    20    10    11   ar
    21    11    12    1
    22    12    13    1
    23    13    14    1
    24    14    15    1
    25    15    18    1
    26    18    19    1
    27    19    20    1
    28    20    21    1
    29    15    16    1
    30    16    17    1
    31    11     2   ar
    32    17    12    1
    33     9     4   ar
    34    21    18    1
    35    28    24   ar
    36    32    30    1
    37    22    23    1
@<TRIPOS>MOLECULE
*****
 32 37 0 0 0
SMALL
GASTEIGER

@<TRIPOS>ATOM
      1 CL        143.7136  144.9173  164.4006 Cl      1  UNL1       -0.0826
      2 C         143.5379  143.7008  163.5408 C.ar    1  UNL1        0.0538
      3 C         143.9941  143.7199  162.1120 C.ar    1  UNL1        0.0141
      4 C         143.8184  142.5033  161.2522 C.ar    1  UNL1        0.0378
      5 C         144.2746  142.5225  159.8234 C.ar    1  UNL1        0.1033
      6 N         144.0989  141.3060  158.9637 N.ar    1  UNL1       -0.2120
      7 C         143.4670  140.0703  159.5328 C.ar    1  UNL1        0.2208
      8 N         143.0108  140.0512  160.9615 N.ar    1  UNL1       -0.2136
      9 C         143.1865  141.2677  161.8213 C.ar    1  UNL1        0.0854
     10 C         142.7302  141.2486  163.2501 C.ar    1  UNL1        0.0158
     11 C         142.9059  142.4651  164.1098 C.ar    1  UNL1       -0.0103
     12 C         142.4497  142.4460  165.5387 C.3     1  UNL1        0.0260
     13 C         141.0018  142.6606  165.8666 C.3     1  UNL1        0.0217
     14 C         140.5455  142.6415  167.2954 C.3     1  UNL1        0.0725
     15 N         141.5372  142.4078  168.3962 N.3     1  UNL1       -0.2697
     16 C         142.9851  142.1933  168.0683 C.3     1  UNL1        0.0725
     17 C         143.4414  142.2124  166.6396 C.3     1  UNL1        0.0217
     18 C         141.0809  142.3888  169.8251 C.3     1  UNL1        0.1172
     19 C         141.6513  141.8751  171.1138 C.3     1  UNL1        0.1606
     20 O         140.4358  142.3617  171.8458 O.3     1  UNL1       -0.3507
     21 C         139.8654  142.8754  170.5570 C.3     1  UNL1        0.1606
     22 N         143.2913  138.8537  158.6730 N.pl3   1  UNL1       -0.2794
     23 H         144.0598  138.2671  158.4872 H       1  UNL1        0.1552
     24 C         141.9448  138.5311  158.0962 C.ar    1  UNL1        0.1001
     25 C         140.6410  138.5481  158.8377 C.ar    1  UNL1        0.1372
     26 N         139.5560  138.1623  157.8764 N.ar    1  UNL1       -0.1656
     27 N         140.1893  137.9068  156.5408 N.ar    1  UNL1       -0.2409
     28 C         141.6656  138.1348  156.6767 C.ar    1  UNL1        0.1497
     29 CL        142.6840  137.9916  155.5847 Cl      1  UNL1       -0.0603
     30 C         139.4721  137.4957  155.2892 C.3     1  UNL1        0.1063
     31 C         138.2107  137.4159  154.4814 C.3     1  UNL1        0.0264
     32 C         139.4913  136.8633  153.9291 C.3     1  UNL1        0.0264
@<TRIPOS>BOND
     1     1     2    1
     2     2     3   ar
     3     3     4   ar
     4     4     5   ar
     5     5     6   ar
     6     6     7   ar
     7     7    22    1
     8    22    24    1
     9    24    25   ar
    10    25    26   ar
    11    26    27   ar
    12    27    30    1
    13    30    31    1
    14    31    32    1
    15    27    28   ar
    16    28    29    1
    17     7     8   ar
    18     8     9   ar
    19     9    10   ar
    20    10    11   ar
    21    11    12    1
    22    12    13    1
    23    13    14    1
    24    14    15    1
    25    15    18    1
    26    18    19    1
    27    19    20    1
    28    20    21    1
    29    15    16    1
    30    16    17    1
    31    11     2   ar
    32    17    12    1
    33     9     4   ar
    34    21    18    1
    35    28    24   ar
    36    32    30    1
    37    22    23    1
@<TRIPOS>MOLECULE
*****
 32 37 0 0 0
SMALL
GASTEIGER

@<TRIPOS>ATOM
      1 CL        138.9524  137.4822  165.2946 Cl      1  UNL1       -0.0826
      2 C         139.4671  138.2664  164.1240 C.ar    1  UNL1        0.0538
      3 C         139.1773  137.8051  162.7264 C.ar    1  UNL1        0.0141
      4 C         139.6920  138.5893  161.5558 C.ar    1  UNL1        0.0378
      5 C         139.4022  138.1280  160.1583 C.ar    1  UNL1        0.1033
      6 N         139.9169  138.9122  158.9878 N.ar    1  UNL1       -0.2120
      7 C         140.7213  140.1577  159.2149 C.ar    1  UNL1        0.2208
      8 N         141.0111  140.6190  160.6124 N.ar    1  UNL1       -0.2136
      9 C         140.4965  139.8348  161.7829 C.ar    1  UNL1        0.0854
     10 C         140.7863  140.2961  163.1805 C.ar    1  UNL1        0.0158
     11 C         140.2716  139.5119  164.3510 C.ar    1  UNL1       -0.0103
     12 C         140.5614  139.9732  165.7487 C.3     1  UNL1        0.0260
     13 C         141.7886  139.4856  166.4601 C.3     1  UNL1        0.0217
     14 C         142.0784  139.9468  167.8576 C.3     1  UNL1        0.0725
     15 N         141.1410  140.8957  168.5438 N.3     1  UNL1       -0.2697
     16 C         139.9138  141.3833  167.8323 C.3     1  UNL1        0.0725
     17 C         139.6240  140.9221  166.4348 C.3     1  UNL1        0.0217
     18 C         141.4308  141.3570  169.9414 C.3     1  UNL1        0.1172
     19 C         142.3876  142.3332  170.5592 C.3     1  UNL1        0.1606
     20 O         141.8407  142.0094  171.9179 O.3     1  UNL1       -0.3507
     21 C         140.8839  141.0332  171.3001 C.3     1  UNL1        0.1606
     22 N         141.2360  140.9419  158.0443 N.pl3   1  UNL1       -0.2794
     23 H         140.6393  141.5628  157.5671 H       1  UNL1        0.1552
     24 C         142.6597  140.7800  157.6007 C.ar    1  UNL1        0.1001
     25 C         143.3017  139.5029  157.1460 C.ar    1  UNL1        0.1372
     26 N         144.7302  139.8004  156.7983 N.ar    1  UNL1       -0.1656
     27 N         144.9711  141.2615  157.0381 N.ar    1  UNL1       -0.2409
     28 C         143.6914  141.8669  157.5340 C.ar    1  UNL1        0.1497
     29 CL        143.4805  143.3064  157.8991 Cl      1  UNL1       -0.0603
     30 C         146.2645  141.9892  156.8202 C.3     1  UNL1        0.1063
     31 C         147.4617  142.2829  155.9656 C.3     1  UNL1        0.0264
     32 C         147.3074  142.9561  157.2973 C.3     1  UNL1        0.0264
@<TRIPOS>BOND
     1     1     2    1
     2     2     3   ar
     3     3     4   ar
     4     4     5   ar
     5     5     6   ar
     6     6     7   ar
     7     7    22    1
     8    22    24    1
     9    24    25   ar
    10    25    26   ar
    11    26    27   ar
    12    27    30    1
    13    30    31    1
    14    31    32    1
    15    27    28   ar
    16    28    29    1
    17     7     8   ar
    18     8     9   ar
    19     9    10   ar
    20    10    11   ar
    21    11    12    1
    22    12    13    1
    23    13    14    1
    24    14    15    1
    25    15    18    1
    26    18    19    1
    27    19    20    1
    28    20    21    1
    29    15    16    1
    30    16    17    1
    31    11     2   ar
    32    17    12    1
    33     9     4   ar
    34    21    18    1
    35    28    24   ar
    36    32    30    1
    37    22    23    1
@<TRIPOS>MOLECULE
*****
 32 37 0 0 0
SMALL
GASTEIGER

@<TRIPOS>ATOM
      1 CL        143.5509  144.4879  164.1745 Cl      1  UNL1       -0.0826
      2 C         142.9056  143.4702  163.2812 C.ar    1  UNL1        0.0538
      3 C         143.1501  143.5082  161.8018 C.ar    1  UNL1        0.0141
      4 C         142.5048  142.4905  160.9085 C.ar    1  UNL1        0.0378
      5 C         142.7494  142.5285  159.4291 C.ar    1  UNL1        0.1033
      6 N         142.1041  141.5108  158.5359 N.ar    1  UNL1       -0.2120
      7 C         141.2143  140.4551  159.1222 C.ar    1  UNL1        0.2208
      8 N         140.9698  140.4170  160.6016 N.ar    1  UNL1       -0.2136
      9 C         141.6151  141.4347  161.4948 C.ar    1  UNL1        0.0854
     10 C         141.3705  141.3967  162.9743 C.ar    1  UNL1        0.0158
     11 C         142.0158  142.4144  163.8675 C.ar    1  UNL1       -0.0103
     12 C         141.7713  142.3764  165.3470 C.3     1  UNL1        0.0260
     13 C         140.5147  142.9666  165.9149 C.3     1  UNL1        0.0217
     14 C         140.2701  142.9287  167.3943 C.3     1  UNL1        0.0725
     15 N         141.2822  142.3004  168.3058 N.3     1  UNL1       -0.2697
     16 C         142.5389  141.7102  167.7379 C.3     1  UNL1        0.0725
     17 C         142.7834  141.7482  166.2585 C.3     1  UNL1        0.0217
     18 C         141.0377  142.2624  169.7853 C.3     1  UNL1        0.1172
     19 C         141.7865  141.7294  170.9707 C.3     1  UNL1        0.1606
     20 O         140.6920  142.2086  171.8776 O.3     1  UNL1       -0.3507
     21 C         139.9432  142.7417  170.6922 C.3     1  UNL1        0.1606
     22 N         140.5690  139.4373  158.2289 N.pl3   1  UNL1       -0.2794
     23 H         139.6304  139.5486  157.9535 H       1  UNL1        0.1552
     24 C         141.3538  138.2500  157.7552 C.ar    1  UNL1        0.1001
     25 C         142.7336  137.8693  158.2038 C.ar    1  UNL1        0.1372
     26 N         143.1292  136.6189  157.4757 N.ar    1  UNL1       -0.1656
     27 N         141.9938  136.2269  156.5771 N.ar    1  UNL1       -0.2409
     28 C         140.8966  137.2349  156.7499 C.ar    1  UNL1        0.1497
     29 CL        139.5743  137.2290  156.0418 Cl      1  UNL1       -0.0603
     30 C         141.9614  135.0359  155.6658 C.3     1  UNL1        0.1063
     31 C         142.3830  134.3616  154.3940 C.3     1  UNL1        0.0264
     32 C         141.4838  133.6474  155.3593 C.3     1  UNL1        0.0264
@<TRIPOS>BOND
     1     1     2    1
     2     2     3   ar
     3     3     4   ar
     4     4     5   ar
     5     5     6   ar
     6     6     7   ar
     7     7    22    1
     8    22    24    1
     9    24    25   ar
    10    25    26   ar
    11    26    27   ar
    12    27    30    1
    13    30    31    1
    14    31    32    1
    15    27    28   ar
    16    28    29    1
    17     7     8   ar
    18     8     9   ar
    19     9    10   ar
    20    10    11   ar
    21    11    12    1
    22    12    13    1
    23    13    14    1
    24    14    15    1
    25    15    18    1
    26    18    19    1
    27    19    20    1
    28    20    21    1
    29    15    16    1
    30    16    17    1
    31    11     2   ar
    32    17    12    1
    33     9     4   ar
    34    21    18    1
    35    28    24   ar
    36    32    30    1
    37    22    23    1
@<TRIPOS>MOLECULE
*****
 32 37 0 0 0
SMALL
GASTEIGER

@<TRIPOS>ATOM
      1 CL        137.6158  142.7884  164.0544 Cl      1  UNL1       -0.0826
      2 C         138.7036  142.2514  163.1720 C.ar    1  UNL1        0.0538
      3 C         138.5808  142.3578  161.6809 C.ar    1  UNL1        0.0141
      4 C         139.6686  141.8208  160.7985 C.ar    1  UNL1        0.0378
      5 C         139.5458  141.9272  159.3073 C.ar    1  UNL1        0.1033
      6 N         140.6335  141.3903  158.4251 N.ar    1  UNL1       -0.2120
      7 C         141.8441  140.7470  159.0339 C.ar    1  UNL1        0.2208
      8 N         141.9669  140.6406  160.5251 N.ar    1  UNL1       -0.2136
      9 C         140.8791  141.1775  161.4073 C.ar    1  UNL1        0.0854
     10 C         141.0019  141.0712  162.8986 C.ar    1  UNL1        0.0158
     11 C         139.9142  141.6081  163.7809 C.ar    1  UNL1       -0.0103
     12 C         140.0369  141.5017  165.2721 C.3     1  UNL1        0.0260
     13 C         139.5183  140.2867  165.9825 C.3     1  UNL1        0.0217
     14 C         139.6410  140.1803  167.4737 C.3     1  UNL1        0.0725
     15 N         140.2824  141.2889  168.2544 N.3     1  UNL1       -0.2697
     16 C         140.8011  142.5039  167.5439 C.3     1  UNL1        0.0725
     17 C         140.6784  142.6103  166.0528 C.3     1  UNL1        0.0217
     18 C         140.4052  141.1826  169.7456 C.3     1  UNL1        0.1172
     19 C         140.2791  140.0698  170.7435 C.3     1  UNL1        0.1606
     20 O         140.5788  141.0321  171.8545 O.3     1  UNL1       -0.3507
     21 C         140.7049  142.1449  170.8566 C.3     1  UNL1        0.1606
     22 N         142.9319  140.2100  158.1516 N.pl3   1  UNL1       -0.2794
     23 H         142.8518  139.3082  157.7648 H       1  UNL1        0.1552
     24 C         144.1416  141.0471  157.8585 C.ar    1  UNL1        0.1001
     25 C         144.5844  142.2563  158.6276 C.ar    1  UNL1        0.1372
     26 N         145.8373  142.7785  157.9893 N.ar    1  UNL1       -0.1656
     27 N         146.1689  141.8919  156.8256 N.ar    1  UNL1       -0.2409
     28 C         145.1208  140.8219  156.7447 C.ar    1  UNL1        0.1497
     29 CL        145.0623  139.7201  155.7286 Cl      1  UNL1       -0.0603
     30 C         147.3424  142.0481  155.9045 C.3     1  UNL1        0.1063
     31 C         147.9387  142.5955  154.6416 C.3     1  UNL1        0.0264
     32 C         148.7786  141.7711  155.5719 C.3     1  UNL1        0.0264
@<TRIPOS>BOND
     1     1     2    1
     2     2     3   ar
     3     3     4   ar
     4     4     5   ar
     5     5     6   ar
     6     6     7   ar
     7     7    22    1
     8    22    24    1
     9    24    25   ar
    10    25    26   ar
    11    26    27   ar
    12    27    30    1
    13    30    31    1
    14    31    32    1
    15    27    28   ar
    16    28    29    1
    17     7     8   ar
    18     8     9   ar
    19     9    10   ar
    20    10    11   ar
    21    11    12    1
    22    12    13    1
    23    13    14    1
    24    14    15    1
    25    15    18    1
    26    18    19    1
    27    19    20    1
    28    20    21    1
    29    15    16    1
    30    16    17    1
    31    11     2   ar
    32    17    12    1
    33     9     4   ar
    34    21    18    1
    35    28    24   ar
    36    32    30    1
    37    22    23    1
@<TRIPOS>MOLECULE
*****
 32 37 0 0 0
SMALL
GASTEIGER

@<TRIPOS>ATOM
      1 CL        141.0936  136.9356  164.3232 Cl      1  UNL1       -0.0826
      2 C         141.7546  137.9615  163.4509 C.ar    1  UNL1        0.0538
      3 C         142.0224  137.6575  162.0066 C.ar    1  UNL1        0.0141
      4 C         142.6834  138.6834  161.1343 C.ar    1  UNL1        0.0378
      5 C         142.9512  138.3794  159.6901 C.ar    1  UNL1        0.1033
      6 N         143.6121  139.4052  158.8179 N.ar    1  UNL1       -0.2120
      7 C         144.0053  140.7350  159.3899 C.ar    1  UNL1        0.2208
      8 N         143.7375  141.0389  160.8341 N.ar    1  UNL1       -0.2136
      9 C         143.0765  140.0131  161.7063 C.ar    1  UNL1        0.0854
     10 C         142.8087  140.3170  163.1507 C.ar    1  UNL1        0.0158
     11 C         142.1477  139.2912  164.0229 C.ar    1  UNL1       -0.0103
     12 C         141.8799  139.5951  165.4672 C.3     1  UNL1        0.0260
     13 C         140.6011  140.2695  165.8671 C.3     1  UNL1        0.0217
     14 C         140.3332  140.5734  167.3113 C.3     1  UNL1        0.0725
     15 N         141.3442  140.2030  168.3556 N.3     1  UNL1       -0.2697
     16 C         142.6230  139.5286  167.9558 C.3     1  UNL1        0.0725
     17 C         142.8908  139.2247  166.5116 C.3     1  UNL1        0.0217
     18 C         141.0763  140.5069  169.8000 C.3     1  UNL1        0.1172
     19 C         140.0701  140.0452  170.8121 C.3     1  UNL1        0.1606
     20 O         140.6975  140.9366  171.8425 O.3     1  UNL1       -0.3507
     21 C         141.7037  141.3984  170.8304 C.3     1  UNL1        0.1606
     22 N         144.6663  141.7608  158.5176 N.pl3   1  UNL1       -0.2794
     23 H         145.6419  141.8864  158.5581 H       1  UNL1        0.1552
     24 C         143.8408  142.5952  157.5836 C.ar    1  UNL1        0.1001
     25 C         143.8702  142.5320  156.0853 C.ar    1  UNL1        0.1372
     26 N         142.8885  143.5371  155.5596 N.ar    1  UNL1       -0.1656
     27 N         142.2525  144.2214  156.7332 N.ar    1  UNL1       -0.2409
     28 C         142.8410  143.6393  157.9840 C.ar    1  UNL1        0.1497
     29 CL        142.4911  144.0323  159.3887 Cl      1  UNL1       -0.0603
     30 C         141.2108  145.2987  156.6673 C.3     1  UNL1        0.1063
     31 C         140.0738  146.0465  157.2982 C.3     1  UNL1        0.0264
     32 C         140.5435  146.4168  155.9225 C.3     1  UNL1        0.0264
@<TRIPOS>BOND
     1     1     2    1
     2     2     3   ar
     3     3     4   ar
     4     4     5   ar
     5     5     6   ar
     6     6     7   ar
     7     7    22    1
     8    22    24    1
     9    24    25   ar
    10    25    26   ar
    11    26    27   ar
    12    27    30    1
    13    30    31    1
    14    31    32    1
    15    27    28   ar
    16    28    29    1
    17     7     8   ar
    18     8     9   ar
    19     9    10   ar
    20    10    11   ar
    21    11    12    1
    22    12    13    1
    23    13    14    1
    24    14    15    1
    25    15    18    1
    26    18    19    1
    27    19    20    1
    28    20    21    1
    29    15    16    1
    30    16    17    1
    31    11     2   ar
    32    17    12    1
    33     9     4   ar
    34    21    18    1
    35    28    24   ar
    36    32    30    1
    37    22    23    1
@<TRIPOS>MOLECULE
*****
 32 37 0 0 0
SMALL
GASTEIGER

@<TRIPOS>ATOM
      1 CL        137.4134  141.1127  162.8406 Cl      1  UNL1       -0.0826
      2 C         138.5063  140.3835  162.1168 C.ar    1  UNL1        0.0538
      3 C         138.4824  140.2908  160.6199 C.ar    1  UNL1        0.0141
      4 C         139.5754  139.5616  159.8960 C.ar    1  UNL1        0.0378
      5 C         139.5515  139.4690  158.3991 C.ar    1  UNL1        0.1033
      6 N         140.6444  138.7398  157.6754 N.ar    1  UNL1       -0.2120
      7 C         141.7612  138.1033  158.4485 C.ar    1  UNL1        0.2208
      8 N         141.7850  138.1960  159.9454 N.ar    1  UNL1       -0.2136
      9 C         140.6921  138.9252  160.6692 C.ar    1  UNL1        0.0854
     10 C         140.7159  139.0179  162.1662 C.ar    1  UNL1        0.0158
     11 C         139.6230  139.7470  162.8899 C.ar    1  UNL1       -0.0103
     12 C         139.6469  139.8398  164.3869 C.3     1  UNL1        0.0260
     13 C         138.7918  138.9215  165.2089 C.3     1  UNL1        0.0217
     14 C         138.8155  139.0142  166.7058 C.3     1  UNL1        0.0725
     15 N         139.6944  140.0251  167.3808 N.3     1  UNL1       -0.2697
     16 C         140.5495  140.9433  166.5588 C.3     1  UNL1        0.0725
     17 C         140.5257  140.8507  165.0619 C.3     1  UNL1        0.0217
     18 C         139.7182  140.1178  168.8778 C.3     1  UNL1        0.1172
     19 C         138.6908  140.3695  169.9413 C.3     1  UNL1        0.1606
     20 O         139.7518  140.2490  170.9948 O.3     1  UNL1       -0.3507
     21 C         140.7792  139.9972  169.9312 C.3     1  UNL1        0.1606
     22 N         142.8541  137.3742  157.7247 N.pl3   1  UNL1       -0.2794
     23 H         143.7839  137.6913  157.7891 H       1  UNL1        0.1552
     24 C         142.5303  136.1619  156.9028 C.ar    1  UNL1        0.1001
     25 C         141.7321  136.1451  155.6330 C.ar    1  UNL1        0.1372
     26 N         141.6564  134.7264  155.1518 N.ar    1  UNL1       -0.1656
     27 N         142.4079  133.8663  156.1243 N.ar    1  UNL1       -0.2409
     28 C         142.9480  134.7535  157.2065 C.ar    1  UNL1        0.1497
     29 CL        143.7627  134.3102  158.3853 Cl      1  UNL1       -0.0603
     30 C         142.5876  132.3801  156.0310 C.3     1  UNL1        0.1063
     31 C         143.0659  131.0895  156.6273 C.3     1  UNL1        0.0264
     32 C         142.4207  131.0964  155.2731 C.3     1  UNL1        0.0264
@<TRIPOS>BOND
     1     1     2    1
     2     2     3   ar
     3     3     4   ar
     4     4     5   ar
     5     5     6   ar
     6     6     7   ar
     7     7    22    1
     8    22    24    1
     9    24    25   ar
    10    25    26   ar
    11    26    27   ar
    12    27    30    1
    13    30    31    1
    14    31    32    1
    15    27    28   ar
    16    28    29    1
    17     7     8   ar
    18     8     9   ar
    19     9    10   ar
    20    10    11   ar
    21    11    12    1
    22    12    13    1
    23    13    14    1
    24    14    15    1
    25    15    18    1
    26    18    19    1
    27    19    20    1
    28    20    21    1
    29    15    16    1
    30    16    17    1
    31    11     2   ar
    32    17    12    1
    33     9     4   ar
    34    21    18    1
    35    28    24   ar
    36    32    30    1
    37    22    23    1
@<TRIPOS>MOLECULE
*****
 32 37 0 0 0
SMALL
GASTEIGER

@<TRIPOS>ATOM
      1 CL        141.0854  141.8218  160.2152 Cl      1  UNL1       -0.0826
      2 C         141.5790  140.5557  159.5799 C.ar    1  UNL1        0.0538
      3 C         142.1654  140.5883  158.1997 C.ar    1  UNL1        0.0141
      4 C         142.6590  139.3222  157.5644 C.ar    1  UNL1        0.0378
      5 C         143.2454  139.3548  156.1842 C.ar    1  UNL1        0.1033
      6 N         143.7390  138.0888  155.5489 N.ar    1  UNL1       -0.2120
      7 C         143.6461  136.7902  156.2939 C.ar    1  UNL1        0.2208
      8 N         143.0596  136.7576  157.6741 N.ar    1  UNL1       -0.2136
      9 C         142.5661  138.0236  158.3093 C.ar    1  UNL1        0.0854
     10 C         141.9796  137.9911  159.6896 C.ar    1  UNL1        0.0158
     11 C         141.4861  139.2571  160.3248 C.ar    1  UNL1       -0.0103
     12 C         140.8996  139.2245  161.7051 C.3     1  UNL1        0.0260
     13 C         141.7108  139.6949  162.8759 C.3     1  UNL1        0.0217
     14 C         141.1244  139.6624  164.2561 C.3     1  UNL1        0.0725
     15 N         139.7268  139.1595  164.4655 N.3     1  UNL1       -0.2697
     16 C         138.9157  138.6891  163.2947 C.3     1  UNL1        0.0725
     17 C         139.5021  138.7216  161.9145 C.3     1  UNL1        0.0217
     18 C         139.1403  139.1269  165.8458 C.3     1  UNL1        0.1172
     19 C         137.9433  138.4774  166.4745 C.3     1  UNL1        0.1606
     20 O         138.3109  139.0808  167.7977 O.3     1  UNL1       -0.3507
     21 C         139.5079  139.7303  167.1690 C.3     1  UNL1        0.1606
     22 N         144.1396  135.5241  155.6586 N.pl3   1  UNL1       -0.2794
     23 H         144.9776  135.5269  155.1417 H       1  UNL1        0.1552
     24 C         143.3565  134.2539  155.8107 C.ar    1  UNL1        0.1001
     25 C         143.3913  133.3331  156.9943 C.ar    1  UNL1        0.1372
     26 N         142.4574  132.1915  156.7211 N.ar    1  UNL1       -0.1656
     27 N         141.8454  132.4068  155.3686 N.ar    1  UNL1       -0.2409
     28 C         142.4011  133.6814  154.8060 C.ar    1  UNL1        0.1497
     29 CL        142.0611  134.2787  153.4727 Cl      1  UNL1       -0.0603
     30 C         140.8522  131.5057  154.6967 C.3     1  UNL1        0.1063
     31 C         140.2139  130.9801  153.4452 C.3     1  UNL1        0.0264
     32 C         139.7702  130.4705  154.7845 C.3     1  UNL1        0.0264
@<TRIPOS>BOND
     1     1     2    1
     2     2     3   ar
     3     3     4   ar
     4     4     5   ar
     5     5     6   ar
     6     6     7   ar
     7     7    22    1
     8    22    24    1
     9    24    25   ar
    10    25    26   ar
    11    26    27   ar
    12    27    30    1
    13    30    31    1
    14    31    32    1
    15    27    28   ar
    16    28    29    1
    17     7     8   ar
    18     8     9   ar
    19     9    10   ar
    20    10    11   ar
    21    11    12    1
    22    12    13    1
    23    13    14    1
    24    14    15    1
    25    15    18    1
    26    18    19    1
    27    19    20    1
    28    20    21    1
    29    15    16    1
    30    16    17    1
    31    11     2   ar
    32    17    12    1
    33     9     4   ar
    34    21    18    1
    35    28    24   ar
    36    32    30    1
    37    22    23    1
@<TRIPOS>MOLECULE
*****
 32 37 0 0 0
SMALL
GASTEIGER

@<TRIPOS>ATOM
      1 CL        137.3787  143.2972  164.3885 Cl      1  UNL1       -0.0826
      2 C         138.3947  142.7715  163.4181 C.ar    1  UNL1        0.0538
      3 C         138.2011  142.9768  161.9449 C.ar    1  UNL1        0.0141
      4 C         139.2170  142.4511  160.9745 C.ar    1  UNL1        0.0378
      5 C         139.0234  142.6563  159.5013 C.ar    1  UNL1        0.1033
      6 N         140.0394  142.1307  158.5310 N.ar    1  UNL1       -0.2120
      7 C         141.2489  141.3998  159.0339 C.ar    1  UNL1        0.2208
      8 N         141.4425  141.1945  160.5071 N.ar    1  UNL1       -0.2136
      9 C         140.4265  141.7202  161.4774 C.ar    1  UNL1        0.0854
     10 C         140.6201  141.5150  162.9507 C.ar    1  UNL1        0.0158
     11 C         139.6042  142.0406  163.9210 C.ar    1  UNL1       -0.0103
     12 C         139.7977  141.8354  165.3943 C.3     1  UNL1        0.0260
     13 C         140.4357  142.9101  166.2238 C.3     1  UNL1        0.0217
     14 C         140.6293  142.7049  167.6970 C.3     1  UNL1        0.0725
     15 N         140.1848  141.4251  168.3407 N.3     1  UNL1       -0.2697
     16 C         139.5468  140.3504  167.5112 C.3     1  UNL1        0.0725
     17 C         139.3533  140.5556  166.0380 C.3     1  UNL1        0.0217
     18 C         140.3784  141.2198  169.8140 C.3     1  UNL1        0.1172
     19 C         140.3734  140.0312  170.7290 C.3     1  UNL1        0.1606
     20 O         140.6521  140.9295  171.8974 O.3     1  UNL1       -0.3507
     21 C         140.6571  142.1181  170.9825 C.3     1  UNL1        0.1606
     22 N         142.2648  140.8741  158.0635 N.pl3   1  UNL1       -0.2794
     23 H         142.8104  141.5001  157.5347 H       1  UNL1        0.1552
     24 C         142.4495  139.3947  157.8989 C.ar    1  UNL1        0.1001
     25 C         142.9025  138.4390  158.9625 C.ar    1  UNL1        0.1372
     26 N         142.9465  137.0648  158.3627 N.ar    1  UNL1       -0.1656
     27 N         142.5207  137.1712  156.9283 N.ar    1  UNL1       -0.2409
     28 C         142.2135  138.6112  156.6417 C.ar    1  UNL1        0.1497
     29 CL        141.7514  139.1696  155.3284 Cl      1  UNL1       -0.0603
     30 C         142.4198  136.0369  155.9521 C.3     1  UNL1        0.1063
     31 C         142.7374  135.4453  154.6108 C.3     1  UNL1        0.0264
     32 C         141.9275  134.6638  155.6025 C.3     1  UNL1        0.0264
@<TRIPOS>BOND
     1     1     2    1
     2     2     3   ar
     3     3     4   ar
     4     4     5   ar
     5     5     6   ar
     6     6     7   ar
     7     7    22    1
     8    22    24    1
     9    24    25   ar
    10    25    26   ar
    11    26    27   ar
    12    27    30    1
    13    30    31    1
    14    31    32    1
    15    27    28   ar
    16    28    29    1
    17     7     8   ar
    18     8     9   ar
    19     9    10   ar
    20    10    11   ar
    21    11    12    1
    22    12    13    1
    23    13    14    1
    24    14    15    1
    25    15    18    1
    26    18    19    1
    27    19    20    1
    28    20    21    1
    29    15    16    1
    30    16    17    1
    31    11     2   ar
    32    17    12    1
    33     9     4   ar
    34    21    18    1
    35    28    24   ar
    36    32    30    1
    37    22    23    1
