@<TRIPOS>MOLECULE
*****
 41 46 0 0 0
SMALL
GASTEIGER

@<TRIPOS>ATOM
      1 N         143.7098  141.8648  161.1961 N.3     1  UNL1       -0.2688
      2 C         144.1826  140.8742  162.2184 C.3     1  UNL1        0.0741
      3 C         143.3940  140.6602  163.4762 C.3     1  UNL1        0.0372
      4 C         142.1325  141.4369  163.7118 C.3     1  UNL1        0.0799
      5 C         141.6597  142.4275  162.6895 C.3     1  UNL1        0.0372
      6 C         142.4484  142.6415  161.4316 C.3     1  UNL1        0.0741
      7 N         141.3438  141.2229  164.9697 N.am    1  UNL1       -0.2618
      8 C         141.7180  141.7093  166.3384 C.2     1  UNL1        0.3074
      9 O         142.9464  142.4952  166.6895 O.2     1  UNL1       -0.2523
     10 N         140.6480  141.2720  167.2943 N.am    1  UNL1       -0.2635
     11 C         139.6125  140.5152  166.5164 C.3     1  UNL1        0.1192
     12 C         140.0426  140.4849  165.0797 C.3     1  UNL1        0.1191
     13 C         140.6186  141.5437  168.7692 C.3     1  UNL1        0.0819
     14 C         141.0796  140.4925  169.7348 C.3     1  UNL1        0.0520
     15 C         141.0503  140.7641  171.2098 C.3     1  UNL1        0.1439
     16 O         140.5598  142.0871  171.7190 O.3     1  UNL1       -0.3537
     17 C         140.0988  143.1383  170.7534 C.3     1  UNL1        0.1439
     18 C         140.1281  142.8666  169.2785 C.3     1  UNL1        0.0520
     19 C         139.3015  139.8313  163.9512 C.ar    1  UNL1       -0.0026
     20 C         139.4049  138.3492  163.7447 C.ar    1  UNL1       -0.0026
     21 C         138.6639  137.6955  162.6163 C.ar    1  UNL1       -0.0003
     22 C         137.8193  138.5240  161.6941 C.ar    1  UNL1       -0.0000
     23 C         137.7159  140.0062  161.9005 C.ar    1  UNL1       -0.0003
     24 C         138.4570  140.6597  163.0290 C.ar    1  UNL1       -0.0026
     25 C         144.4985  142.0788  159.9382 C.3     1  UNL1        0.1007
     26 C         143.7510  139.4766  156.3437 C.ar    1  UNL1        0.1107
     27 C         144.5104  140.7617  156.1946 C.ar    1  UNL1        0.0255
     28 C         144.7595  141.6290  157.3927 C.ar    1  UNL1        0.0007
     29 C         144.2493  141.2114  158.7401 C.ar    1  UNL1        0.0131
     30 C         143.4900  139.9264  158.8892 C.ar    1  UNL1        0.0965
     31 N         143.2408  139.0590  157.6910 N.ar    1  UNL1       -0.2376
     32 S         143.5019  138.6093  155.1455 S.3     1  UNL1       -0.0680
     33 C         142.3326  134.2984  155.6924 C.ar    1  UNL1        0.0140
     34 C         141.2921  135.3183  155.3360 C.ar    1  UNL1        0.0016
     35 C         141.6819  136.7553  155.1537 C.ar    1  UNL1        0.0066
     36 C         143.1121  137.1723  155.3278 C.ar    1  UNL1        0.0309
     37 C         144.1526  136.1524  155.6843 C.ar    1  UNL1        0.0066
     38 C         143.7629  134.7155  155.8666 C.ar    1  UNL1        0.0016
     39 O         142.5741  132.0455  156.9636 O.co2   1  UNL1       -0.5446
     40 C         141.9429  132.8615  155.8747 C.2     1  UNL1        0.0729
     41 O         140.9218  132.2405  154.9682 O.co2   1  UNL1       -0.5446
@<TRIPOS>UNITY_ATOM_ATTR
39 1
charge -1
@<TRIPOS>BOND
     1    39    40   ar
     2    40    41   ar
     3    40    33    1
     4    33    34   ar
     5    34    35   ar
     6    35    36   ar
     7    36    32    1
     8    32    26    1
     9    26    27   ar
    10    27    28   ar
    11    28    29   ar
    12    29    25    1
    13    25     1    1
    14     1     2    1
    15     2     3    1
    16     3     4    1
    17     4     7    1
    18     7     8   am
    19     8     9    2
    20     8    10   am
    21    10    13    1
    22    13    14    1
    23    14    15    1
    24    15    16    1
    25    16    17    1
    26    17    18    1
    27    10    11    1
    28    11    12    1
    29    12    19    1
    30    19    20   ar
    31    20    21   ar
    32    21    22   ar
    33    22    23   ar
    34    23    24   ar
    35     4     5    1
    36     5     6    1
    37    29    30   ar
    38    30    31   ar
    39    36    37   ar
    40    37    38   ar
    41    38    33   ar
    42    31    26   ar
    43     6     1    1
    44    12     7    1
    45    24    19   ar
    46    18    13    1
@<TRIPOS>MOLECULE
*****
 41 46 0 0 0
SMALL
GASTEIGER

@<TRIPOS>ATOM
      1 N         143.5673  141.9093  161.1225 N.3     1  UNL1       -0.2688
      2 C         142.4057  142.7946  161.4648 C.3     1  UNL1        0.0741
      3 C         141.6389  142.5685  162.7339 C.3     1  UNL1        0.0372
      4 C         142.0335  141.4571  163.6609 C.3     1  UNL1        0.0799
      5 C         143.1951  140.5718  163.3186 C.3     1  UNL1        0.0372
      6 C         143.9619  140.7980  162.0493 C.3     1  UNL1        0.0741
      7 N         141.2667  141.2310  164.9300 N.am    1  UNL1       -0.2618
      8 C         141.6411  141.7427  166.2894 C.2     1  UNL1        0.3074
      9 O         142.8480  142.5704  166.6183 O.2     1  UNL1       -0.2523
     10 N         140.5966  141.2815  167.2621 N.am    1  UNL1       -0.2635
     11 C         139.5766  140.4846  166.5039 C.3     1  UNL1        0.1192
     12 C         139.9908  140.4534  165.0626 C.3     1  UNL1        0.1191
     13 C         140.5757  141.5670  168.7346 C.3     1  UNL1        0.0819
     14 C         140.8188  140.4596  169.7168 C.3     1  UNL1        0.0520
     15 C         140.7979  140.7450  171.1892 C.3     1  UNL1        0.1439
     16 O         140.5338  142.1379  171.6795 O.3     1  UNL1       -0.3537
     17 C         140.2907  143.2452  170.6973 C.3     1  UNL1        0.1439
     18 C         140.3116  142.9598  169.2249 C.3     1  UNL1        0.0520
     19 C         139.2578  139.7655  163.9494 C.ar    1  UNL1       -0.0026
     20 C         138.4710  140.5715  162.9587 C.ar    1  UNL1       -0.0026
     21 C         137.7380  139.8836  161.8455 C.ar    1  UNL1       -0.0003
     22 C         137.7917  138.3896  161.7228 C.ar    1  UNL1       -0.0000
     23 C         138.5784  137.5835  162.7134 C.ar    1  UNL1       -0.0003
     24 C         139.3114  138.2715  163.8267 C.ar    1  UNL1       -0.0026
     25 C         144.3341  142.1354  159.8534 C.3     1  UNL1        0.1007
     26 C         143.5730  139.5233  156.2689 C.ar    1  UNL1        0.1107
     27 C         142.6287  139.4918  157.4340 C.ar    1  UNL1        0.0255
     28 C         142.8825  140.3625  158.6288 C.ar    1  UNL1        0.0007
     29 C         144.0804  141.2647  158.6585 C.ar    1  UNL1        0.0131
     30 C         145.0246  141.2963  157.4934 C.ar    1  UNL1        0.0965
     31 N         144.7709  140.4256  156.2986 N.ar    1  UNL1       -0.2376
     32 S         143.3192  138.6527  155.0741 S.3     1  UNL1       -0.0680
     33 C         142.2924  134.3073  155.6339 C.ar    1  UNL1        0.0140
     34 C         141.2198  135.2905  155.2696 C.ar    1  UNL1        0.0016
     35 C         141.5621  136.7390  155.0830 C.ar    1  UNL1        0.0066
     36 C         142.9770  137.2042  155.2607 C.ar    1  UNL1        0.0309
     37 C         144.0495  136.2210  155.6250 C.ar    1  UNL1        0.0066
     38 C         143.7073  134.7726  155.8116 C.ar    1  UNL1        0.0016
     39 O         142.5659  132.0817  156.9460 O.co2   1  UNL1       -0.5446
     40 C         141.9501  132.8589  155.8206 C.2     1  UNL1        0.0729
     41 O         140.9920  132.1876  154.8817 O.co2   1  UNL1       -0.5446
@<TRIPOS>UNITY_ATOM_ATTR
39 1
charge -1
@<TRIPOS>BOND
     1    39    40   ar
     2    40    41   ar
     3    40    33    1
     4    33    34   ar
     5    34    35   ar
     6    35    36   ar
     7    36    32    1
     8    32    26    1
     9    26    27   ar
    10    27    28   ar
    11    28    29   ar
    12    29    25    1
    13    25     1    1
    14     1     2    1
    15     2     3    1
    16     3     4    1
    17     4     7    1
    18     7     8   am
    19     8     9    2
    20     8    10   am
    21    10    13    1
    22    13    14    1
    23    14    15    1
    24    15    16    1
    25    16    17    1
    26    17    18    1
    27    10    11    1
    28    11    12    1
    29    12    19    1
    30    19    20   ar
    31    20    21   ar
    32    21    22   ar
    33    22    23   ar
    34    23    24   ar
    35     4     5    1
    36     5     6    1
    37    29    30   ar
    38    30    31   ar
    39    36    37   ar
    40    37    38   ar
    41    38    33   ar
    42    31    26   ar
    43     6     1    1
    44    12     7    1
    45    24    19   ar
    46    18    13    1
@<TRIPOS>MOLECULE
*****
 41 46 0 0 0
SMALL
GASTEIGER

@<TRIPOS>ATOM
      1 N         140.1735  138.7162  160.5696 N.3     1  UNL1       -0.2688
      2 C         141.6074  138.4205  160.8961 C.3     1  UNL1        0.0741
      3 C         142.7056  139.1369  160.1677 C.3     1  UNL1        0.0372
      4 C         142.3700  140.1492  159.1128 C.3     1  UNL1        0.0799
      5 C         140.9361  140.4450  158.7864 C.3     1  UNL1        0.0372
      6 C         139.8379  139.7284  159.5148 C.3     1  UNL1        0.0741
      7 N         143.4682  140.8657  158.3845 N.am    1  UNL1       -0.2618
      8 C         144.0915  140.4387  157.0887 C.2     1  UNL1        0.3074
      9 O         143.7262  139.2202  156.2938 O.2     1  UNL1       -0.2523
     10 N         145.1445  141.4440  156.7273 N.am    1  UNL1       -0.2635
     11 C         145.1719  142.4924  157.7998 C.3     1  UNL1        0.1192
     12 C         144.1359  142.1349  158.8240 C.3     1  UNL1        0.1191
     13 C         146.0169  141.4074  155.5077 C.3     1  UNL1        0.0819
     14 C         145.4435  140.9842  154.1878 C.3     1  UNL1        0.0520
     15 C         146.3158  140.9475  152.9681 C.3     1  UNL1        0.1439
     16 O         147.7617  141.3342  153.0683 O.3     1  UNL1       -0.3537
     17 C         148.3351  141.7575  154.3881 C.3     1  UNL1        0.1439
     18 C         147.4627  141.7941  155.6078 C.3     1  UNL1        0.0520
     19 C         143.8226  142.9106  160.0690 C.ar    1  UNL1       -0.0026
     20 C         142.5363  143.6753  160.1725 C.ar    1  UNL1       -0.0026
     21 C         142.2229  144.4510  161.4175 C.ar    1  UNL1       -0.0003
     22 C         143.1958  144.4620  162.5591 C.ar    1  UNL1       -0.0000
     23 C         144.4821  143.6973  162.4557 C.ar    1  UNL1       -0.0003
     24 C         144.7955  142.9216  161.2106 C.ar    1  UNL1       -0.0026
     25 C         139.0753  137.9998  161.2980 C.3     1  UNL1        0.1007
     26 C         138.4491  138.7197  165.6958 C.ar    1  UNL1        0.1107
     27 C         139.1309  137.4672  165.2303 C.ar    1  UNL1        0.0255
     28 C         139.3396  137.2273  163.7645 C.ar    1  UNL1        0.0007
     29 C         138.8666  138.2398  162.7639 C.ar    1  UNL1        0.0131
     30 C         138.1849  139.4922  163.2293 C.ar    1  UNL1        0.0965
     31 N         137.9761  139.7322  164.6952 N.ar    1  UNL1       -0.2376
     32 S         138.2404  138.9596  167.1616 S.3     1  UNL1       -0.0680
     33 C         140.5866  142.1671  169.2730 C.ar    1  UNL1        0.0140
     34 C         139.6338  141.3034  170.0452 C.ar    1  UNL1        0.0016
     35 C         138.8518  140.2343  169.3414 C.ar    1  UNL1        0.0066
     36 C         139.0225  140.0288  167.8654 C.ar    1  UNL1        0.0309
     37 C         139.9753  140.8924  167.0933 C.ar    1  UNL1        0.0066
     38 C         140.7574  141.9615  167.7971 C.ar    1  UNL1        0.0016
     39 O         140.7045  144.5281  170.3508 O.co2   1  UNL1       -0.5446
     40 C         141.3687  143.2362  169.9768 C.2     1  UNL1        0.0729
     41 O         142.8149  143.0135  170.3066 O.co2   1  UNL1       -0.5446
@<TRIPOS>UNITY_ATOM_ATTR
39 1
charge -1
@<TRIPOS>BOND
     1    39    40   ar
     2    40    41   ar
     3    40    33    1
     4    33    34   ar
     5    34    35   ar
     6    35    36   ar
     7    36    32    1
     8    32    26    1
     9    26    27   ar
    10    27    28   ar
    11    28    29   ar
    12    29    25    1
    13    25     1    1
    14     1     2    1
    15     2     3    1
    16     3     4    1
    17     4     7    1
    18     7     8   am
    19     8     9    2
    20     8    10   am
    21    10    13    1
    22    13    14    1
    23    14    15    1
    24    15    16    1
    25    16    17    1
    26    17    18    1
    27    10    11    1
    28    11    12    1
    29    12    19    1
    30    19    20   ar
    31    20    21   ar
    32    21    22   ar
    33    22    23   ar
    34    23    24   ar
    35     4     5    1
    36     5     6    1
    37    29    30   ar
    38    30    31   ar
    39    36    37   ar
    40    37    38   ar
    41    38    33   ar
    42    31    26   ar
    43     6     1    1
    44    12     7    1
    45    24    19   ar
    46    18    13    1
@<TRIPOS>MOLECULE
*****
 41 46 0 0 0
SMALL
GASTEIGER

@<TRIPOS>ATOM
      1 N         139.5035  142.8789  159.6943 N.3     1  UNL1       -0.2688
      2 C         138.4017  142.4229  160.6043 C.3     1  UNL1        0.0741
      3 C         138.7203  141.9633  161.9961 C.3     1  UNL1        0.0372
      4 C         140.1408  141.9599  162.4781 C.3     1  UNL1        0.0799
      5 C         141.2427  142.4159  161.5682 C.3     1  UNL1        0.0372
      6 C         140.9240  142.8755  160.1762 C.3     1  UNL1        0.0741
      7 N         140.4594  141.5004  163.8699 N.am    1  UNL1       -0.2618
      8 C         139.9037  142.0777  165.1379 C.2     1  UNL1        0.3074
      9 O         138.9318  143.2160  165.2367 O.2     1  UNL1       -0.2523
     10 N         140.4905  141.3170  166.2898 N.am    1  UNL1       -0.2635
     11 C         141.4090  140.2695  165.7338 C.3     1  UNL1        0.1192
     12 C         141.3897  140.3828  164.2382 C.3     1  UNL1        0.1191
     13 C         140.2084  141.5610  167.7428 C.3     1  UNL1        0.0819
     14 C         139.5838  140.4821  168.5770 C.3     1  UNL1        0.0520
     15 C         139.3017  140.7260  170.0299 C.3     1  UNL1        0.1439
     16 O         139.6442  142.0489  170.6486 O.3     1  UNL1       -0.3537
     17 C         140.2688  143.1278  169.8143 C.3     1  UNL1        0.1439
     18 C         140.5509  142.8838  168.3614 C.3     1  UNL1        0.0520
     19 C         142.1648  139.5286  163.2793 C.ar    1  UNL1       -0.0026
     20 C         141.4531  138.5125  162.4360 C.ar    1  UNL1       -0.0026
     21 C         142.2280  137.6582  161.4771 C.ar    1  UNL1       -0.0003
     22 C         143.7148  137.8200  161.3613 C.ar    1  UNL1       -0.0000
     23 C         144.4265  138.8361  162.2046 C.ar    1  UNL1       -0.0003
     24 C         143.6515  139.6903  163.1635 C.ar    1  UNL1       -0.0026
     25 C         139.1849  143.3384  158.3025 C.3     1  UNL1        0.1007
     26 C         136.0572  141.1893  155.8840 C.ar    1  UNL1        0.1107
     27 C         136.3708  142.6276  155.5959 C.ar    1  UNL1        0.0255
     28 C         137.4134  143.3439  156.4020 C.ar    1  UNL1        0.0007
     29 C         138.1423  142.6220  157.4963 C.ar    1  UNL1        0.0131
     30 C         137.8287  141.1838  157.7845 C.ar    1  UNL1        0.0965
     31 N         136.7861  140.4674  156.9784 N.ar    1  UNL1       -0.2376
     32 S         135.0146  140.4730  155.0779 S.3     1  UNL1       -0.0680
     33 C         130.9813  139.6077  156.8763 C.ar    1  UNL1        0.0140
     34 C         131.2019  140.8742  156.1035 C.ar    1  UNL1        0.0016
     35 C         132.5463  141.1626  155.5041 C.ar    1  UNL1        0.0066
     36 C         133.6702  140.1845  155.6774 C.ar    1  UNL1        0.0309
     37 C         133.4497  138.9180  156.4501 C.ar    1  UNL1        0.0066
     38 C         132.1053  138.6296  157.0496 C.ar    1  UNL1        0.0016
     39 O         129.5400  138.6101  158.7939 O.co2   1  UNL1       -0.5446
     40 C         129.6369  139.3192  157.4757 C.2     1  UNL1        0.0729
     41 O         128.3894  139.7399  156.7570 O.co2   1  UNL1       -0.5446
@<TRIPOS>UNITY_ATOM_ATTR
39 1
charge -1
@<TRIPOS>BOND
     1    39    40   ar
     2    40    41   ar
     3    40    33    1
     4    33    34   ar
     5    34    35   ar
     6    35    36   ar
     7    36    32    1
     8    32    26    1
     9    26    27   ar
    10    27    28   ar
    11    28    29   ar
    12    29    25    1
    13    25     1    1
    14     1     2    1
    15     2     3    1
    16     3     4    1
    17     4     7    1
    18     7     8   am
    19     8     9    2
    20     8    10   am
    21    10    13    1
    22    13    14    1
    23    14    15    1
    24    15    16    1
    25    16    17    1
    26    17    18    1
    27    10    11    1
    28    11    12    1
    29    12    19    1
    30    19    20   ar
    31    20    21   ar
    32    21    22   ar
    33    22    23   ar
    34    23    24   ar
    35     4     5    1
    36     5     6    1
    37    29    30   ar
    38    30    31   ar
    39    36    37   ar
    40    37    38   ar
    41    38    33   ar
    42    31    26   ar
    43     6     1    1
    44    12     7    1
    45    24    19   ar
    46    18    13    1
@<TRIPOS>MOLECULE
*****
 41 46 0 0 0
SMALL
GASTEIGER

@<TRIPOS>ATOM
      1 N         142.5796  142.9067  159.8811 N.3     1  UNL1       -0.2688
      2 C         143.4444  141.9767  160.6795 C.3     1  UNL1        0.0741
      3 C         143.0884  141.6563  162.1009 C.3     1  UNL1        0.0372
      4 C         141.8676  142.2659  162.7241 C.3     1  UNL1        0.0799
      5 C         141.0029  143.1958  161.9257 C.3     1  UNL1        0.0372
      6 C         141.3589  143.5162  160.5042 C.3     1  UNL1        0.0741
      7 N         141.5116  141.9455  164.1455 N.am    1  UNL1       -0.2618
      8 C         142.0827  142.6026  165.3670 C.2     1  UNL1        0.3074
      9 O         143.1100  143.6954  165.3815 O.2     1  UNL1       -0.2523
     10 N         141.4461  141.9749  166.5715 N.am    1  UNL1       -0.2635
     11 C         140.4816  140.9299  166.0944 C.3     1  UNL1        0.1192
     12 C         140.5221  140.9117  164.5951 C.3     1  UNL1        0.1191
     13 C         141.7251  142.3300  168.0020 C.3     1  UNL1        0.0819
     14 C         140.6296  142.8823  168.8650 C.3     1  UNL1        0.0520
     15 C         140.9085  143.2373  170.2955 C.3     1  UNL1        0.1439
     16 O         142.2830  143.0401  170.8629 O.3     1  UNL1       -0.3537
     17 C         143.3785  142.4878  169.9998 C.3     1  UNL1        0.1439
     18 C         143.0995  142.1327  168.5694 C.3     1  UNL1        0.0520
     19 C         139.7148  140.0168  163.7021 C.ar    1  UNL1       -0.0026
     20 C         140.0465  138.5572  163.6051 C.ar    1  UNL1       -0.0026
     21 C         139.2393  137.6623  162.7122 C.ar    1  UNL1       -0.0003
     22 C         138.1001  138.2270  161.9162 C.ar    1  UNL1       -0.0000
     23 C         137.7684  139.6866  162.0132 C.ar    1  UNL1       -0.0003
     24 C         138.5757  140.5815  162.9062 C.ar    1  UNL1       -0.0026
     25 C         142.9356  143.2271  158.4597 C.3     1  UNL1        0.1007
     26 C         140.0546  145.5323  155.8835 C.ar    1  UNL1        0.1107
     27 C         139.9480  144.0389  155.9766 C.ar    1  UNL1        0.0255
     28 C         140.9083  143.2706  156.8353 C.ar    1  UNL1        0.0007
     29 C         141.9753  143.9955  157.6009 C.ar    1  UNL1        0.0131
     30 C         142.0819  145.4888  157.5078 C.ar    1  UNL1        0.0965
     31 N         141.1216  146.2572  156.6490 N.ar    1  UNL1       -0.2376
     32 S         139.0943  146.3006  155.0248 S.3     1  UNL1       -0.0680
     33 C         139.3552  150.7883  154.8182 C.ar    1  UNL1        0.0140
     34 C         140.0614  149.9482  153.7958 C.ar    1  UNL1        0.0016
     35 C         139.9744  148.4523  153.8646 C.ar    1  UNL1        0.0066
     36 C         139.1813  147.7965  154.9559 C.ar    1  UNL1        0.0309
     37 C         138.4751  148.6367  155.9783 C.ar    1  UNL1        0.0066
     38 C         138.5620  150.1326  155.9094 C.ar    1  UNL1        0.0016
     39 O         138.8499  153.1211  155.8442 O.co2   1  UNL1       -0.5446
     40 C         139.4421  152.2842  154.7493 C.2     1  UNL1        0.0729
     41 O         140.1213  152.9432  153.5855 O.co2   1  UNL1       -0.5446
@<TRIPOS>UNITY_ATOM_ATTR
39 1
charge -1
@<TRIPOS>BOND
     1    39    40   ar
     2    40    41   ar
     3    40    33    1
     4    33    34   ar
     5    34    35   ar
     6    35    36   ar
     7    36    32    1
     8    32    26    1
     9    26    27   ar
    10    27    28   ar
    11    28    29   ar
    12    29    25    1
    13    25     1    1
    14     1     2    1
    15     2     3    1
    16     3     4    1
    17     4     7    1
    18     7     8   am
    19     8     9    2
    20     8    10   am
    21    10    13    1
    22    13    14    1
    23    14    15    1
    24    15    16    1
    25    16    17    1
    26    17    18    1
    27    10    11    1
    28    11    12    1
    29    12    19    1
    30    19    20   ar
    31    20    21   ar
    32    21    22   ar
    33    22    23   ar
    34    23    24   ar
    35     4     5    1
    36     5     6    1
    37    29    30   ar
    38    30    31   ar
    39    36    37   ar
    40    37    38   ar
    41    38    33   ar
    42    31    26   ar
    43     6     1    1
    44    12     7    1
    45    24    19   ar
    46    18    13    1
@<TRIPOS>MOLECULE
*****
 41 46 0 0 0
SMALL
GASTEIGER

@<TRIPOS>ATOM
      1 N         138.8741  140.8547  159.6989 N.3     1  UNL1       -0.2688
      2 C         138.9239  140.3353  158.2926 C.3     1  UNL1        0.0741
      3 C         139.9957  140.8084  157.3558 C.3     1  UNL1        0.0372
      4 C         141.0176  141.8010  157.8254 C.3     1  UNL1        0.0799
      5 C         140.9678  142.3204  159.2317 C.3     1  UNL1        0.0372
      6 C         139.8960  141.8473  160.1684 C.3     1  UNL1        0.0741
      7 N         142.0894  142.2741  156.8886 N.am    1  UNL1       -0.2618
      8 C         143.4610  141.6835  156.7479 C.2     1  UNL1        0.3074
      9 O         144.0017  140.5161  157.5192 O.2     1  UNL1       -0.2523
     10 N         144.1970  142.4652  155.7005 N.am    1  UNL1       -0.2635
     11 C         143.2803  143.5390  155.1938 C.3     1  UNL1        0.1192
     12 C         141.9777  143.4208  155.9282 C.3     1  UNL1        0.1191
     13 C         145.6030  142.2168  155.2404 C.3     1  UNL1        0.0819
     14 C         145.8769  141.9094  153.7980 C.3     1  UNL1        0.0520
     15 C         147.2828  141.6610  153.3379 C.3     1  UNL1        0.1439
     16 O         148.4149  141.7201  154.3203 O.3     1  UNL1       -0.3537
     17 C         148.1410  142.0275  155.7626 C.3     1  UNL1        0.1439
     18 C         146.7350  142.2759  156.2227 C.3     1  UNL1        0.0520
     19 C         140.7746  144.2958  155.7358 C.ar    1  UNL1       -0.0026
     20 C         140.7620  145.6873  156.2958 C.ar    1  UNL1       -0.0026
     21 C         139.5590  146.5623  156.1035 C.ar    1  UNL1       -0.0003
     22 C         138.3685  146.0459  155.3511 C.ar    1  UNL1       -0.0000
     23 C         138.3811  144.6544  154.7911 C.ar    1  UNL1       -0.0003
     24 C         139.5842  143.7794  154.9835 C.ar    1  UNL1       -0.0026
     25 C         137.8024  140.3816  160.6356 C.3     1  UNL1        0.1007
     26 C         138.8000  139.4981  164.9338 C.ar    1  UNL1        0.1107
     27 C         137.9633  140.6943  164.5886 C.ar    1  UNL1        0.0255
     28 C         137.6308  140.9888  163.1559 C.ar    1  UNL1        0.0007
     29 C         138.1349  140.0871  162.0684 C.ar    1  UNL1        0.0131
     30 C         138.9716  138.8910  162.4135 C.ar    1  UNL1        0.0965
     31 N         139.3042  138.5965  163.8463 N.ar    1  UNL1       -0.2376
     32 S         139.1326  139.2037  166.3665 S.3     1  UNL1       -0.0680
     33 C         140.4641  142.5246  169.0957 C.ar    1  UNL1        0.0140
     34 C         139.7470  141.3334  169.6584 C.ar    1  UNL1        0.0016
     35 C         139.3032  140.2264  168.7487 C.ar    1  UNL1        0.0066
     36 C         139.5764  140.3106  167.2763 C.ar    1  UNL1        0.0309
     37 C         140.2935  141.5019  166.7135 C.ar    1  UNL1        0.0066
     38 C         140.7374  142.6088  167.6233 C.ar    1  UNL1        0.0016
     39 O         142.2934  143.6200  170.5802 O.co2   1  UNL1       -0.5446
     40 C         140.9080  143.6316  170.0055 C.2     1  UNL1        0.0729
     41 O         139.9664  144.7501  170.3404 O.co2   1  UNL1       -0.5446
@<TRIPOS>UNITY_ATOM_ATTR
39 1
charge -1
@<TRIPOS>BOND
     1    39    40   ar
     2    40    41   ar
     3    40    33    1
     4    33    34   ar
     5    34    35   ar
     6    35    36   ar
     7    36    32    1
     8    32    26    1
     9    26    27   ar
    10    27    28   ar
    11    28    29   ar
    12    29    25    1
    13    25     1    1
    14     1     2    1
    15     2     3    1
    16     3     4    1
    17     4     7    1
    18     7     8   am
    19     8     9    2
    20     8    10   am
    21    10    13    1
    22    13    14    1
    23    14    15    1
    24    15    16    1
    25    16    17    1
    26    17    18    1
    27    10    11    1
    28    11    12    1
    29    12    19    1
    30    19    20   ar
    31    20    21   ar
    32    21    22   ar
    33    22    23   ar
    34    23    24   ar
    35     4     5    1
    36     5     6    1
    37    29    30   ar
    38    30    31   ar
    39    36    37   ar
    40    37    38   ar
    41    38    33   ar
    42    31    26   ar
    43     6     1    1
    44    12     7    1
    45    24    19   ar
    46    18    13    1
@<TRIPOS>MOLECULE
*****
 41 46 0 0 0
SMALL
GASTEIGER

@<TRIPOS>ATOM
      1 N         139.7627  139.4881  159.8951 N.3     1  UNL1       -0.2688
      2 C         138.9021  138.8859  160.9660 C.3     1  UNL1        0.0741
      3 C         139.0532  139.3334  162.3896 C.3     1  UNL1        0.0372
      4 C         140.0649  140.3832  162.7426 C.3     1  UNL1        0.0799
      5 C         140.9256  140.9854  161.6717 C.3     1  UNL1        0.0372
      6 C         140.7744  140.5378  160.2480 C.3     1  UNL1        0.0741
      7 N         140.2160  140.8306  164.1662 N.am    1  UNL1       -0.2618
      8 C         140.4145  139.9374  165.3548 C.2     1  UNL1        0.3074
      9 O         140.4968  138.4399  165.3284 O.2     1  UNL1       -0.2523
     10 N         140.5163  140.8046  166.5745 N.am    1  UNL1       -0.2635
     11 C         140.3807  142.2339  166.1397 C.3     1  UNL1        0.1192
     12 C         140.1951  142.2499  164.6513 C.3     1  UNL1        0.1191
     13 C         140.7182  140.3266  167.9819 C.3     1  UNL1        0.0819
     14 C         142.0388  139.7476  168.3951 C.3     1  UNL1        0.0520
     15 C         142.2408  139.2695  169.8025 C.3     1  UNL1        0.1439
     16 O         141.1221  139.3705  170.7966 O.3     1  UNL1       -0.3537
     17 C         139.8015  139.9494  170.3834 C.3     1  UNL1        0.1439
     18 C         139.5995  140.4275  168.9760 C.3     1  UNL1        0.0520
     19 C         140.0195  143.4709  163.7979 C.ar    1  UNL1       -0.0026
     20 C         138.6493  143.8758  163.3410 C.ar    1  UNL1       -0.0026
     21 C         138.4736  145.0967  162.4876 C.ar    1  UNL1       -0.0003
     22 C         139.6681  145.9128  162.0909 C.ar    1  UNL1       -0.0000
     23 C         141.0383  145.5079  162.5478 C.ar    1  UNL1       -0.0003
     24 C         141.2139  144.2869  163.4012 C.ar    1  UNL1       -0.0026
     25 C         139.6116  139.0407  158.4715 C.3     1  UNL1        0.1007
     26 C         142.5987  136.1917  156.6793 C.ar    1  UNL1        0.1107
     27 C         141.2259  136.3103  156.0862 C.ar    1  UNL1        0.0255
     28 C         140.2303  137.2599  156.6836 C.ar    1  UNL1        0.0007
     29 C         140.6073  138.0910  157.8741 C.ar    1  UNL1        0.0131
     30 C         141.9800  137.9725  158.4671 C.ar    1  UNL1        0.0965
     31 N         142.9757  137.0228  157.8697 N.ar    1  UNL1       -0.2376
     32 S         143.5943  135.2421  156.0818 S.3     1  UNL1       -0.0680
     33 C         143.5136  130.8887  157.2180 C.ar    1  UNL1        0.0140
     34 C         144.4563  131.8273  157.9110 C.ar    1  UNL1        0.0016
     35 C         144.4832  133.2785  157.5322 C.ar    1  UNL1        0.0066
     36 C         143.5674  133.7910  156.4606 C.ar    1  UNL1        0.0309
     37 C         142.6247  132.8524  155.7676 C.ar    1  UNL1        0.0066
     38 C         142.5978  131.4012  156.1463 C.ar    1  UNL1        0.0016
     39 O         143.9320  129.0109  158.9641 O.co2   1  UNL1       -0.5446
     40 C         143.4867  129.4375  157.5967 C.2     1  UNL1        0.0729
     41 O         143.0145  128.4130  156.6081 O.co2   1  UNL1       -0.5446
@<TRIPOS>UNITY_ATOM_ATTR
39 1
charge -1
@<TRIPOS>BOND
     1    39    40   ar
     2    40    41   ar
     3    40    33    1
     4    33    34   ar
     5    34    35   ar
     6    35    36   ar
     7    36    32    1
     8    32    26    1
     9    26    27   ar
    10    27    28   ar
    11    28    29   ar
    12    29    25    1
    13    25     1    1
    14     1     2    1
    15     2     3    1
    16     3     4    1
    17     4     7    1
    18     7     8   am
    19     8     9    2
    20     8    10   am
    21    10    13    1
    22    13    14    1
    23    14    15    1
    24    15    16    1
    25    16    17    1
    26    17    18    1
    27    10    11    1
    28    11    12    1
    29    12    19    1
    30    19    20   ar
    31    20    21   ar
    32    21    22   ar
    33    22    23   ar
    34    23    24   ar
    35     4     5    1
    36     5     6    1
    37    29    30   ar
    38    30    31   ar
    39    36    37   ar
    40    37    38   ar
    41    38    33   ar
    42    31    26   ar
    43     6     1    1
    44    12     7    1
    45    24    19   ar
    46    18    13    1
@<TRIPOS>MOLECULE
*****
 41 46 0 0 0
SMALL
GASTEIGER

@<TRIPOS>ATOM
      1 N         141.0029  139.4750  159.2699 N.3     1  UNL1       -0.2688
      2 C         142.4033  139.0009  159.0163 C.3     1  UNL1        0.0741
      3 C         142.6569  137.9116  158.0168 C.3     1  UNL1        0.0372
      4 C         141.5101  137.2964  157.2708 C.3     1  UNL1        0.0799
      5 C         140.1098  137.7705  157.5243 C.3     1  UNL1        0.0372
      6 C         139.8562  138.8599  158.5239 C.3     1  UNL1        0.0741
      7 N         141.7637  136.2071  156.2713 N.am    1  UNL1       -0.2618
      8 C         142.5755  134.9676  156.5049 C.2     1  UNL1        0.3074
      9 O         143.2762  134.5998  157.7792 O.2     1  UNL1       -0.2523
     10 N         142.5635  134.1605  155.2407 N.am    1  UNL1       -0.2635
     11 C         141.7443  134.9012  154.2256 C.3     1  UNL1        0.1192
     12 C         141.2500  136.1660  154.8625 C.3     1  UNL1        0.1191
     13 C         143.2502  132.8438  155.0287 C.3     1  UNL1        0.0819
     14 C         142.9869  132.0528  153.7817 C.3     1  UNL1        0.0520
     15 C         143.6735  130.7361  153.5696 C.3     1  UNL1        0.1439
     16 O         144.6236  130.2105  154.6047 O.3     1  UNL1       -0.3537
     17 C         144.8869  131.0015  155.8516 C.3     1  UNL1        0.1439
     18 C         144.2002  132.3182  156.0636 C.3     1  UNL1        0.0520
     19 C         140.3926  137.2071  154.2060 C.ar    1  UNL1       -0.0026
     20 C         138.9331  136.9436  153.9808 C.ar    1  UNL1       -0.0026
     21 C         138.0757  137.9846  153.3243 C.ar    1  UNL1       -0.0003
     22 C         138.6776  139.2891  152.8930 C.ar    1  UNL1       -0.0000
     23 C         140.1370  139.5525  153.1182 C.ar    1  UNL1       -0.0003
     24 C         140.9944  138.5115  153.7747 C.ar    1  UNL1       -0.0026
     25 C         140.7494  140.5643  160.2694 C.3     1  UNL1        0.1007
     26 C         139.5192  139.5214  164.4706 C.ar    1  UNL1        0.1107
     27 C         138.4782  139.8746  163.4500 C.ar    1  UNL1        0.0255
     28 C         138.8882  140.2222  162.0497 C.ar    1  UNL1        0.0007
     29 C         140.3393  140.2167  161.6698 C.ar    1  UNL1        0.0131
     30 C         141.3804  139.8635  162.6903 C.ar    1  UNL1        0.0965
     31 N         140.9703  139.5159  164.0907 N.ar    1  UNL1       -0.2376
     32 S         139.1092  139.1738  165.8709 S.3     1  UNL1       -0.0680
     33 C         140.1020  141.9589  169.2632 C.ar    1  UNL1        0.0140
     34 C         139.4021  140.6611  169.5386 C.ar    1  UNL1        0.0016
     35 C         139.0712  139.7327  168.4078 C.ar    1  UNL1        0.0066
     36 C         139.4401  140.1021  167.0016 C.ar    1  UNL1        0.0309
     37 C         140.1400  141.3999  166.7262 C.ar    1  UNL1        0.0066
     38 C         140.4709  142.3283  167.8570 C.ar    1  UNL1        0.0016
     39 O         140.5184  144.3649  170.1506 O.co2   1  UNL1       -0.5446
     40 C         140.4329  142.8873  170.3939 C.2     1  UNL1        0.0729
     41 O         140.6783  142.3380  171.7680 O.co2   1  UNL1       -0.5446
@<TRIPOS>UNITY_ATOM_ATTR
39 1
charge -1
@<TRIPOS>BOND
     1    39    40   ar
     2    40    41   ar
     3    40    33    1
     4    33    34   ar
     5    34    35   ar
     6    35    36   ar
     7    36    32    1
     8    32    26    1
     9    26    27   ar
    10    27    28   ar
    11    28    29   ar
    12    29    25    1
    13    25     1    1
    14     1     2    1
    15     2     3    1
    16     3     4    1
    17     4     7    1
    18     7     8   am
    19     8     9    2
    20     8    10   am
    21    10    13    1
    22    13    14    1
    23    14    15    1
    24    15    16    1
    25    16    17    1
    26    17    18    1
    27    10    11    1
    28    11    12    1
    29    12    19    1
    30    19    20   ar
    31    20    21   ar
    32    21    22   ar
    33    22    23   ar
    34    23    24   ar
    35     4     5    1
    36     5     6    1
    37    29    30   ar
    38    30    31   ar
    39    36    37   ar
    40    37    38   ar
    41    38    33   ar
    42    31    26   ar
    43     6     1    1
    44    12     7    1
    45    24    19   ar
    46    18    13    1
@<TRIPOS>MOLECULE
*****
 41 46 0 0 0
SMALL
GASTEIGER

@<TRIPOS>ATOM
      1 N         139.5907  139.3843  160.6481 N.3     1  UNL1       -0.2688
      2 C         139.6130  140.8580  160.9264 C.3     1  UNL1        0.0741
      3 C         140.0567  141.3613  162.2680 C.3     1  UNL1        0.0372
      4 C         140.4782  140.3908  163.3313 C.3     1  UNL1        0.0799
      5 C         140.4559  138.9171  163.0529 C.3     1  UNL1        0.0372
      6 C         140.0122  138.4138  161.7113 C.3     1  UNL1        0.0741
      7 N         140.9219  140.8941  164.6728 N.am    1  UNL1       -0.2618
      8 C         140.2240  140.6556  165.9789 C.2     1  UNL1        0.3074
      9 O         138.9598  139.8719  166.1728 O.2     1  UNL1       -0.2523
     10 N         141.0122  141.3384  167.0571 N.am    1  UNL1       -0.2635
     11 C         142.1973  141.9989  166.4173 C.3     1  UNL1        0.1192
     12 C         142.1415  141.7244  164.9438 C.3     1  UNL1        0.1191
     13 C         140.6746  141.3573  168.5185 C.3     1  UNL1        0.0819
     14 C         140.3713  142.6579  169.2014 C.3     1  UNL1        0.0520
     15 C         140.0337  142.6769  170.6628 C.3     1  UNL1        0.1439
     16 O         139.9994  141.3951  171.4413 O.3     1  UNL1       -0.3537
     17 C         140.3027  140.0945  170.7584 C.3     1  UNL1        0.1439
     18 C         140.6403  140.0756  169.2970 C.3     1  UNL1        0.0520
     19 C         143.1314  142.1970  163.9208 C.ar    1  UNL1       -0.0026
     20 C         144.1075  141.2301  163.3188 C.ar    1  UNL1       -0.0026
     21 C         145.0975  141.7027  162.2959 C.ar    1  UNL1       -0.0003
     22 C         145.1114  143.1424  161.8747 C.ar    1  UNL1       -0.0000
     23 C         144.1353  144.1093  162.4766 C.ar    1  UNL1       -0.0003
     24 C         143.1454  143.6366  163.4996 C.ar    1  UNL1       -0.0026
     25 C         139.1470  138.8810  159.3066 C.3     1  UNL1        0.1007
     26 C         142.1568  137.1466  156.4459 C.ar    1  UNL1        0.1107
     27 C         140.6913  137.0566  156.1385 C.ar    1  UNL1        0.0255
     28 C         139.6881  137.6347  157.0921 C.ar    1  UNL1        0.0007
     29 C         140.1503  138.3028  158.3530 C.ar    1  UNL1        0.0131
     30 C         141.6157  138.3929  158.6604 C.ar    1  UNL1        0.0965
     31 N         142.6190  137.8148  157.7068 N.ar    1  UNL1       -0.2376
     32 S         143.1600  136.5685  155.4923 S.3     1  UNL1       -0.0680
     33 C         143.2671  132.1304  154.7562 C.ar    1  UNL1        0.0140
     34 C         142.5310  133.0303  153.8085 C.ar    1  UNL1        0.0016
     35 C         142.4953  134.5097  154.0538 C.ar    1  UNL1        0.0066
     36 C         143.1957  135.0892  155.2469 C.ar    1  UNL1        0.0309
     37 C         143.9319  134.1893  156.1947 C.ar    1  UNL1        0.0066
     38 C         143.9676  132.7099  155.9493 C.ar    1  UNL1        0.0016
     39 O         142.1122  129.8052  154.8526 O.co2   1  UNL1       -0.5446
     40 C         143.3029  130.6511  154.5109 C.2     1  UNL1        0.0729
     41 O         144.5292  130.0176  153.9238 O.co2   1  UNL1       -0.5446
@<TRIPOS>UNITY_ATOM_ATTR
39 1
charge -1
@<TRIPOS>BOND
     1    39    40   ar
     2    40    41   ar
     3    40    33    1
     4    33    34   ar
     5    34    35   ar
     6    35    36   ar
     7    36    32    1
     8    32    26    1
     9    26    27   ar
    10    27    28   ar
    11    28    29   ar
    12    29    25    1
    13    25     1    1
    14     1     2    1
    15     2     3    1
    16     3     4    1
    17     4     7    1
    18     7     8   am
    19     8     9    2
    20     8    10   am
    21    10    13    1
    22    13    14    1
    23    14    15    1
    24    15    16    1
    25    16    17    1
    26    17    18    1
    27    10    11    1
    28    11    12    1
    29    12    19    1
    30    19    20   ar
    31    20    21   ar
    32    21    22   ar
    33    22    23   ar
    34    23    24   ar
    35     4     5    1
    36     5     6    1
    37    29    30   ar
    38    30    31   ar
    39    36    37   ar
    40    37    38   ar
    41    38    33   ar
    42    31    26   ar
    43     6     1    1
    44    12     7    1
    45    24    19   ar
    46    18    13    1
