@<TRIPOS>MOLECULE
*****
 24 25 0 0 0
SMALL
GASTEIGER

@<TRIPOS>ATOM
      1 C         138.7230  140.2548  165.4610 C.ar    1  UNL1        0.1466
      2 N         138.3361  141.2771  164.4338 N.ar    1  UNL1       -0.2017
      3 C         138.8632  142.6779  164.5341 C.ar    1  UNL1        0.2354
      4 N         139.7773  143.0563  165.6616 N.ar    1  UNL1       -0.2015
      5 C         140.1642  142.0339  166.6888 C.ar    1  UNL1        0.1499
      6 C         139.6370  140.6332  166.5885 C.ar    1  UNL1        0.1055
      7 N         140.0240  139.6109  167.6157 N.pl3   1  UNL1       -0.3526
      8 H         140.6239  139.8592  168.3557 H       1  UNL1        0.1425
      9 H         139.6780  138.6915  167.5499 H       1  UNL1        0.1425
     10 N         141.0783  142.4123  167.8163 N.pl3   1  UNL1       -0.2870
     11 C         140.5346  143.1374  169.0116 C.3     1  UNL1        0.1243
     12 C         141.4488  143.5157  170.1391 C.3     1  UNL1        0.1636
     13 O         142.9066  143.1690  170.0713 O.3     1  UNL1       -0.3501
     14 C         143.4503  142.4440  168.8760 C.3     1  UNL1        0.1636
     15 C         142.5361  142.0656  167.7485 C.3     1  UNL1        0.1243
     16 N         138.1958  138.8541  165.3607 N.pl3   1  UNL1       -0.3170
     17 H         137.2308  138.6834  165.4553 H       1  UNL1        0.1482
     18 C         139.1388  137.7135  165.1164 C.3     1  UNL1        0.0881
     19 C         138.7382  137.7385  163.0334 C.3     1  UNL1        0.0017
     20 C         139.9793  137.6882  163.8743 C.3     1  UNL1        0.0180
     21 C         141.2205  137.6380  164.7152 C.3     1  UNL1        0.0017
     22 C         140.8199  137.6629  162.6321 C.3     1  UNL1        0.0017
     23 C         138.4763  143.7002  163.5069 C.1     1  UNL1        0.1400
     24 N         138.0893  144.7225  162.4797 N.1     1  UNL1       -0.1876
@<TRIPOS>BOND
     1    19    20    1
     2    20    21    1
     3    20    22    1
     4    20    18    1
     5    18    16    1
     6    16     1    1
     7     1     2   ar
     8     2     3   ar
     9     3    23    1
    10    23    24    3
    11     3     4   ar
    12     4     5   ar
    13     5    10    1
    14    10    11    1
    15    11    12    1
    16    12    13    1
    17    13    14    1
    18    14    15    1
    19     5     6   ar
    20     6     7    1
    21     6     1   ar
    22    15    10    1
    23    16    17    1
    24     7     8    1
    25     7     9    1
@<TRIPOS>MOLECULE
*****
 24 25 0 0 0
SMALL
GASTEIGER

@<TRIPOS>ATOM
      1 C         139.3666  140.1344  166.0189 C.ar    1  UNL1        0.1466
      2 N         139.3957  140.2014  167.5171 N.ar    1  UNL1       -0.2017
      3 C         140.1918  141.2708  168.2046 C.ar    1  UNL1        0.2354
      4 N         140.9587  142.2731  167.3940 N.ar    1  UNL1       -0.2015
      5 C         140.9295  142.2061  165.8958 C.ar    1  UNL1        0.1499
      6 C         140.1335  141.1367  165.2083 C.ar    1  UNL1        0.1055
      7 N         140.1044  141.0698  163.7100 N.pl3   1  UNL1       -0.3526
      8 H         140.6077  141.7276  163.1780 H       1  UNL1        0.1425
      9 H         139.5819  140.3679  163.2587 H       1  UNL1        0.1425
     10 N         141.6965  143.2085  165.0851 N.pl3   1  UNL1       -0.2870
     11 C         143.1871  143.0926  164.9643 C.3     1  UNL1        0.1243
     12 C         143.9540  144.0950  164.1536 C.3     1  UNL1        0.1636
     13 O         143.2303  145.2132  163.4638 O.3     1  UNL1       -0.3501
     14 C         141.7396  145.3290  163.5846 C.3     1  UNL1        0.1636
     15 C         140.9727  144.3266  164.3953 C.3     1  UNL1        0.1243
     16 N         138.5705  139.0651  165.3313 N.pl3   1  UNL1       -0.3170
     17 H         137.6336  139.2335  165.0803 H       1  UNL1        0.1482
     18 C         139.2020  137.7392  165.0261 C.3     1  UNL1        0.0881
     19 C         138.8612  137.7772  162.9327 C.3     1  UNL1        0.0017
     20 C         140.0633  137.5812  163.8083 C.3     1  UNL1        0.0180
     21 C         141.2654  137.3852  164.6838 C.3     1  UNL1        0.0017
     22 C         140.9246  137.4232  162.5904 C.3     1  UNL1        0.0017
     23 C         140.2209  141.3378  169.7029 C.1     1  UNL1        0.1400
     24 N         140.2501  141.4048  171.2011 N.1     1  UNL1       -0.1876
@<TRIPOS>BOND
     1    19    20    1
     2    20    21    1
     3    20    22    1
     4    20    18    1
     5    18    16    1
     6    16     1    1
     7     1     2   ar
     8     2     3   ar
     9     3    23    1
    10    23    24    3
    11     3     4   ar
    12     4     5   ar
    13     5    10    1
    14    10    11    1
    15    11    12    1
    16    12    13    1
    17    13    14    1
    18    14    15    1
    19     5     6   ar
    20     6     7    1
    21     6     1   ar
    22    15    10    1
    23    16    17    1
    24     7     8    1
    25     7     9    1
@<TRIPOS>MOLECULE
*****
 24 25 0 0 0
SMALL
GASTEIGER

@<TRIPOS>ATOM
      1 C         141.3582  140.8913  166.7963 C.ar    1  UNL1        0.1466
      2 N         140.3373  139.8896  167.2479 N.ar    1  UNL1       -0.2017
      3 C         139.0220  139.7851  166.5343 C.ar    1  UNL1        0.2354
      4 N         138.7278  140.6825  165.3689 N.ar    1  UNL1       -0.2015
      5 C         139.7487  141.6843  164.9173 C.ar    1  UNL1        0.1499
      6 C         141.0639  141.7887  165.6309 C.ar    1  UNL1        0.1055
      7 N         142.0849  142.7906  165.1792 N.pl3   1  UNL1       -0.3526
      8 H         141.8917  143.3796  164.4143 H       1  UNL1        0.1425
      9 H         142.9481  142.8591  165.6476 H       1  UNL1        0.1425
     10 N         139.4544  142.5818  163.7519 N.pl3   1  UNL1       -0.2870
     11 C         139.7719  142.1288  162.3576 C.3     1  UNL1        0.1243
     12 C         139.4776  143.0263  161.1922 C.3     1  UNL1        0.1636
     13 O         138.8659  144.3766  161.4211 O.3     1  UNL1       -0.3501
     14 C         138.5485  144.8295  162.8155 C.3     1  UNL1        0.1636
     15 C         138.8428  143.9321  163.9808 C.3     1  UNL1        0.1243
     16 N         142.6734  140.9958  167.5099 N.pl3   1  UNL1       -0.3170
     17 H         143.4081  140.3819  167.2804 H       1  UNL1        0.1482
     18 C         142.8693  142.0354  168.5733 C.3     1  UNL1        0.0881
     19 C         141.4732  143.1573  169.7100 C.3     1  UNL1        0.0017
     20 C         142.2158  141.8700  169.9133 C.3     1  UNL1        0.0180
     21 C         142.9584  140.5827  170.1166 C.3     1  UNL1        0.0017
     22 C         141.5623  141.7047  171.2533 C.3     1  UNL1        0.0017
     23 C         138.0011  138.7833  166.9860 C.1     1  UNL1        0.1400
     24 N         136.9802  137.7815  167.4378 N.1     1  UNL1       -0.1876
@<TRIPOS>BOND
     1    19    20    1
     2    20    21    1
     3    20    22    1
     4    20    18    1
     5    18    16    1
     6    16     1    1
     7     1     2   ar
     8     2     3   ar
     9     3    23    1
    10    23    24    3
    11     3     4   ar
    12     4     5   ar
    13     5    10    1
    14    10    11    1
    15    11    12    1
    16    12    13    1
    17    13    14    1
    18    14    15    1
    19     5     6   ar
    20     6     7    1
    21     6     1   ar
    22    15    10    1
    23    16    17    1
    24     7     8    1
    25     7     9    1
@<TRIPOS>MOLECULE
*****
 24 25 0 0 0
SMALL
GASTEIGER

@<TRIPOS>ATOM
      1 C         139.6966  141.1548  164.8288 C.ar    1  UNL1        0.1466
      2 N         138.7900  140.0195  165.2019 N.ar    1  UNL1       -0.2017
      3 C         138.6647  139.6001  166.6366 C.ar    1  UNL1        0.2354
      4 N         139.4460  140.3159  167.6982 N.ar    1  UNL1       -0.2015
      5 C         140.3525  141.4512  167.3252 C.ar    1  UNL1        0.1499
      6 C         140.4778  141.8707  165.8905 C.ar    1  UNL1        0.1055
      7 N         141.3844  143.0060  165.5174 N.pl3   1  UNL1       -0.3526
      8 H         141.8972  143.4759  166.2142 H       1  UNL1        0.1425
      9 H         141.4667  143.2813  164.5758 H       1  UNL1        0.1425
     10 N         141.1339  142.1672  168.3868 N.pl3   1  UNL1       -0.2870
     11 C         142.5535  141.7727  168.6677 C.3     1  UNL1        0.1243
     12 C         143.3348  142.4886  169.7294 C.3     1  UNL1        0.1636
     13 O         142.6964  143.5990  170.5101 O.3     1  UNL1       -0.3501
     14 C         141.2767  143.9935  170.2292 C.3     1  UNL1        0.1636
     15 C         140.4955  143.2775  169.1675 C.3     1  UNL1        0.1243
     16 N         139.8218  141.5742  163.3941 N.pl3   1  UNL1       -0.3170
     17 H         140.5765  141.2509  162.8508 H       1  UNL1        0.1482
     18 C         138.7974  142.4863  162.7872 C.3     1  UNL1        0.0881
     19 C         137.8000  144.2869  163.3002 C.3     1  UNL1        0.0017
     20 C         139.0959  143.9474  162.6254 C.3     1  UNL1        0.0180
     21 C         140.3918  143.6079  161.9506 C.3     1  UNL1        0.0017
     22 C         139.3944  145.4085  162.4636 C.3     1  UNL1        0.0017
     23 C         137.7581  138.4647  167.0096 C.1     1  UNL1        0.1400
     24 N         136.8515  137.3294  167.3826 N.1     1  UNL1       -0.1876
@<TRIPOS>BOND
     1    19    20    1
     2    20    21    1
     3    20    22    1
     4    20    18    1
     5    18    16    1
     6    16     1    1
     7     1     2   ar
     8     2     3   ar
     9     3    23    1
    10    23    24    3
    11     3     4   ar
    12     4     5   ar
    13     5    10    1
    14    10    11    1
    15    11    12    1
    16    12    13    1
    17    13    14    1
    18    14    15    1
    19     5     6   ar
    20     6     7    1
    21     6     1   ar
    22    15    10    1
    23    16    17    1
    24     7     8    1
    25     7     9    1
@<TRIPOS>MOLECULE
*****
 24 25 0 0 0
SMALL
GASTEIGER

@<TRIPOS>ATOM
      1 C         142.0845  140.8486  165.9404 C.ar    1  UNL1        0.1466
      2 N         141.4614  140.7450  167.3009 N.ar    1  UNL1       -0.2017
      3 C         140.0289  140.3224  167.4395 C.ar    1  UNL1        0.2354
      4 N         139.2194  140.0034  166.2176 N.ar    1  UNL1       -0.2015
      5 C         139.8425  140.1070  164.8572 C.ar    1  UNL1        0.1499
      6 C         141.2751  140.5296  164.7185 C.ar    1  UNL1        0.1055
      7 N         141.8981  140.6332  163.3579 N.pl3   1  UNL1       -0.3526
      8 H         141.3668  140.4238  162.5560 H       1  UNL1        0.1425
      9 H         142.8384  140.9106  163.2669 H       1  UNL1        0.1425
     10 N         139.0330  139.7880  163.6352 N.pl3   1  UNL1       -0.2870
     11 C         138.3603  140.8905  162.8723 C.3     1  UNL1        0.1243
     12 C         137.5509  140.5715  161.6504 C.3     1  UNL1        0.1636
     13 O         137.4142  139.1500  161.1914 O.3     1  UNL1       -0.3501
     14 C         138.0869  138.0475  161.9543 C.3     1  UNL1        0.1636
     15 C         138.8963  138.3665  163.1762 C.3     1  UNL1        0.1243
     16 N         143.5171  141.2712  165.8017 N.pl3   1  UNL1       -0.3170
     17 H         144.2373  140.6059  165.8906 H       1  UNL1        0.1482
     18 C         143.8522  142.7073  165.5277 C.3     1  UNL1        0.0881
     19 C         145.2504  142.1295  164.0407 C.3     1  UNL1        0.0017
     20 C         144.1569  143.1525  164.1281 C.3     1  UNL1        0.0180
     21 C         143.0634  144.1756  164.2155 C.3     1  UNL1        0.0017
     22 C         144.4616  143.5977  162.7285 C.3     1  UNL1        0.0017
     23 C         139.4058  140.2188  168.8001 C.1     1  UNL1        0.1400
     24 N         138.7827  140.1152  170.1606 N.1     1  UNL1       -0.1876
@<TRIPOS>BOND
     1    19    20    1
     2    20    21    1
     3    20    22    1
     4    20    18    1
     5    18    16    1
     6    16     1    1
     7     1     2   ar
     8     2     3   ar
     9     3    23    1
    10    23    24    3
    11     3     4   ar
    12     4     5   ar
    13     5    10    1
    14    10    11    1
    15    11    12    1
    16    12    13    1
    17    13    14    1
    18    14    15    1
    19     5     6   ar
    20     6     7    1
    21     6     1   ar
    22    15    10    1
    23    16    17    1
    24     7     8    1
    25     7     9    1
@<TRIPOS>MOLECULE
*****
 24 25 0 0 0
SMALL
GASTEIGER

@<TRIPOS>ATOM
      1 C         142.5666  143.0102  164.7554 C.ar    1  UNL1        0.1466
      2 N         141.5332  143.5835  163.8317 N.ar    1  UNL1       -0.2017
      3 C         140.1095  143.7118  164.2862 C.ar    1  UNL1        0.2354
      4 N         139.7192  143.2667  165.6644 N.ar    1  UNL1       -0.2015
      5 C         140.7526  142.6934  166.5881 C.ar    1  UNL1        0.1499
      6 C         142.1763  142.5651  166.1337 C.ar    1  UNL1        0.1055
      7 N         143.2097  141.9918  167.0575 N.pl3   1  UNL1       -0.3526
      8 H         142.9535  141.6997  167.9621 H       1  UNL1        0.1425
      9 H         144.1442  141.9075  166.7592 H       1  UNL1        0.1425
     10 N         140.3623  142.2483  167.9664 N.pl3   1  UNL1       -0.2870
     11 C         139.9210  140.8341  168.2010 C.3     1  UNL1        0.1243
     12 C         139.5307  140.3890  169.5794 C.3     1  UNL1        0.1636
     13 O         139.5817  141.3583  170.7230 O.3     1  UNL1       -0.3501
     14 C         140.0229  142.7726  170.4883 C.3     1  UNL1        0.1636
     15 C         140.4132  143.2176  169.1101 C.3     1  UNL1        0.1243
     16 N         143.9904  142.8819  164.3010 N.pl3   1  UNL1       -0.3170
     17 H         144.7132  143.2993  164.8230 H       1  UNL1        0.1482
     18 C         144.3127  142.1176  163.0512 C.3     1  UNL1        0.0881
     19 C         145.2725  140.5629  164.1290 C.3     1  UNL1        0.0017
     20 C         144.2351  140.6196  163.0471 C.3     1  UNL1        0.0180
     21 C         143.1977  140.6764  161.9651 C.3     1  UNL1        0.0017
     22 C         144.1575  139.1216  163.0429 C.3     1  UNL1        0.0017
     23 C         139.0761  144.2851  163.3623 C.1     1  UNL1        0.1400
     24 N         138.0428  144.8585  162.4385 N.1     1  UNL1       -0.1876
@<TRIPOS>BOND
     1    19    20    1
     2    20    21    1
     3    20    22    1
     4    20    18    1
     5    18    16    1
     6    16     1    1
     7     1     2   ar
     8     2     3   ar
     9     3    23    1
    10    23    24    3
    11     3     4   ar
    12     4     5   ar
    13     5    10    1
    14    10    11    1
    15    11    12    1
    16    12    13    1
    17    13    14    1
    18    14    15    1
    19     5     6   ar
    20     6     7    1
    21     6     1   ar
    22    15    10    1
    23    16    17    1
    24     7     8    1
    25     7     9    1
@<TRIPOS>MOLECULE
*****
 24 25 0 0 0
SMALL
GASTEIGER

@<TRIPOS>ATOM
      1 C         140.3142  140.9882  165.7402 C.ar    1  UNL1        0.1466
      2 N         139.4363  140.1772  166.6465 N.ar    1  UNL1       -0.2017
      3 C         138.4537  139.2042  166.0653 C.ar    1  UNL1        0.2354
      4 N         138.3490  139.0423  164.5778 N.ar    1  UNL1       -0.2015
      5 C         139.2269  139.8533  163.6715 C.ar    1  UNL1        0.1499
      6 C         140.2095  140.8263  164.2527 C.ar    1  UNL1        0.1055
      7 N         141.0874  141.6373  163.3463 N.pl3   1  UNL1       -0.3526
      8 H         141.0187  141.5311  162.3700 H       1  UNL1        0.1425
      9 H         141.7324  142.2759  163.7277 H       1  UNL1        0.1425
     10 N         139.1222  139.6914  162.1839 N.pl3   1  UNL1       -0.2870
     11 C         139.9878  138.6920  161.4755 C.3     1  UNL1        0.1243
     12 C         139.8831  138.5300  159.9879 C.3     1  UNL1        0.1636
     13 O         138.9128  139.3676  159.2087 O.3     1  UNL1       -0.3501
     14 C         138.0473  140.3671  159.9172 C.3     1  UNL1        0.1636
     15 C         138.1520  140.5290  161.4047 C.3     1  UNL1        0.1243
     16 N         141.2968  141.9612  166.3214 N.pl3   1  UNL1       -0.3170
     17 H         142.1932  142.0519  165.9245 H       1  UNL1        0.1482
     18 C         140.9138  142.7959  167.5074 C.3     1  UNL1        0.0881
     19 C         142.8850  142.1710  167.9803 C.3     1  UNL1        0.0017
     20 C         141.7379  142.7428  168.7596 C.3     1  UNL1        0.0180
     21 C         140.5908  143.3146  169.5388 C.3     1  UNL1        0.0017
     22 C         142.5621  142.6897  170.0117 C.3     1  UNL1        0.0017
     23 C         137.5757  138.3932  166.9717 C.1     1  UNL1        0.1400
     24 N         136.6978  137.5822  167.8781 N.1     1  UNL1       -0.1876
@<TRIPOS>BOND
     1    19    20    1
     2    20    21    1
     3    20    22    1
     4    20    18    1
     5    18    16    1
     6    16     1    1
     7     1     2   ar
     8     2     3   ar
     9     3    23    1
    10    23    24    3
    11     3     4   ar
    12     4     5   ar
    13     5    10    1
    14    10    11    1
    15    11    12    1
    16    12    13    1
    17    13    14    1
    18    14    15    1
    19     5     6   ar
    20     6     7    1
    21     6     1   ar
    22    15    10    1
    23    16    17    1
    24     7     8    1
    25     7     9    1
@<TRIPOS>MOLECULE
*****
 24 25 0 0 0
SMALL
GASTEIGER

@<TRIPOS>ATOM
      1 C         139.1808  140.9190  165.2993 C.ar    1  UNL1        0.1466
      2 N         139.7090  142.0721  164.4986 N.ar    1  UNL1       -0.2017
      3 C         140.6682  143.0417  165.1229 C.ar    1  UNL1        0.2354
      4 N         141.0993  142.8582  166.5478 N.ar    1  UNL1       -0.2015
      5 C         140.5711  141.7050  167.3485 C.ar    1  UNL1        0.1499
      6 C         139.6118  140.7354  166.7242 C.ar    1  UNL1        0.1055
      7 N         139.0836  139.5822  167.5250 N.pl3   1  UNL1       -0.3526
      8 H         139.3665  139.4617  168.4603 H       1  UNL1        0.1425
      9 H         138.4540  138.9458  167.1153 H       1  UNL1        0.1425
     10 N         141.0021  141.5214  168.7735 N.pl3   1  UNL1       -0.2870
     11 C         140.2443  142.1948  169.8790 C.3     1  UNL1        0.1243
     12 C         140.6753  142.0112  171.3040 C.3     1  UNL1        0.1636
     13 O         141.8642  141.1542  171.6234 O.3     1  UNL1       -0.3501
     14 C         142.6221  140.4808  170.5178 C.3     1  UNL1        0.1636
     15 C         142.1910  140.6644  169.0929 C.3     1  UNL1        0.1243
     16 N         138.2215  139.9493  164.6751 N.pl3   1  UNL1       -0.3170
     17 H         137.2898  139.9068  164.9902 H       1  UNL1        0.1482
     18 C         138.6818  139.0446  163.5708 C.3     1  UNL1        0.0881
     19 C         138.9955  137.3979  164.8708 C.3     1  UNL1        0.0017
     20 C         139.8065  138.0814  163.8100 C.3     1  UNL1        0.0180
     21 C         140.6175  138.7648  162.7493 C.3     1  UNL1        0.0017
     22 C         140.9312  137.1181  164.0493 C.3     1  UNL1        0.0017
     23 C         141.1965  144.1950  164.3221 C.1     1  UNL1        0.1400
     24 N         141.7247  145.3481  163.5214 N.1     1  UNL1       -0.1876
@<TRIPOS>BOND
     1    19    20    1
     2    20    21    1
     3    20    22    1
     4    20    18    1
     5    18    16    1
     6    16     1    1
     7     1     2   ar
     8     2     3   ar
     9     3    23    1
    10    23    24    3
    11     3     4   ar
    12     4     5   ar
    13     5    10    1
    14    10    11    1
    15    11    12    1
    16    12    13    1
    17    13    14    1
    18    14    15    1
    19     5     6   ar
    20     6     7    1
    21     6     1   ar
    22    15    10    1
    23    16    17    1
    24     7     8    1
    25     7     9    1
@<TRIPOS>MOLECULE
*****
 24 25 0 0 0
SMALL
GASTEIGER

@<TRIPOS>ATOM
      1 C         141.1443  144.7836  162.7865 C.ar    1  UNL1        0.1466
      2 N         142.3814  143.9924  163.0922 N.ar    1  UNL1       -0.2017
      3 C         143.2117  143.4365  161.9735 C.ar    1  UNL1        0.2354
      4 N         142.8049  143.6717  160.5491 N.ar    1  UNL1       -0.2015
      5 C         141.5678  144.4629  160.2433 C.ar    1  UNL1        0.1499
      6 C         140.7375  145.0188  161.3620 C.ar    1  UNL1        0.1055
      7 N         139.5003  145.8101  161.0562 N.pl3   1  UNL1       -0.3526
      8 H         139.2333  145.9644  160.1213 H       1  UNL1        0.1425
      9 H         138.9553  146.1749  161.7904 H       1  UNL1        0.1425
     10 N         141.1609  144.6982  158.8188 N.pl3   1  UNL1       -0.2870
     11 C         140.0858  143.8570  158.1972 C.3     1  UNL1        0.1243
     12 C         139.6789  144.0923  156.7727 C.3     1  UNL1        0.1636
     13 O         140.3473  145.1688  155.9698 O.3     1  UNL1       -0.3501
     14 C         141.4225  146.0099  156.5915 C.3     1  UNL1        0.1636
     15 C         141.8293  145.7746  158.0160 C.3     1  UNL1        0.1243
     16 N         140.3139  145.3395  163.9052 N.pl3   1  UNL1       -0.3170
     17 H         140.0872  146.2974  163.9209 H       1  UNL1        0.1482
     18 C         139.8291  144.4360  165.0000 C.3     1  UNL1        0.0881
     19 C         139.8539  142.3285  165.2398 C.3     1  UNL1        0.0017
     20 C         138.8757  143.3215  164.6855 C.3     1  UNL1        0.0180
     21 C         137.8976  144.3145  164.1313 C.3     1  UNL1        0.0017
     22 C         137.9224  142.2069  164.3711 C.3     1  UNL1        0.0017
     23 C         144.4489  142.6453  162.2794 C.1     1  UNL1        0.1400
     24 N         145.6860  141.8541  162.5851 N.1     1  UNL1       -0.1876
@<TRIPOS>BOND
     1    19    20    1
     2    20    21    1
     3    20    22    1
     4    20    18    1
     5    18    16    1
     6    16     1    1
     7     1     2   ar
     8     2     3   ar
     9     3    23    1
    10    23    24    3
    11     3     4   ar
    12     4     5   ar
    13     5    10    1
    14    10    11    1
    15    11    12    1
    16    12    13    1
    17    13    14    1
    18    14    15    1
    19     5     6   ar
    20     6     7    1
    21     6     1   ar
    22    15    10    1
    23    16    17    1
    24     7     8    1
    25     7     9    1
