@<TRIPOS>MOLECULE
*****
 32 33 0 0 0
SMALL
GASTEIGER

@<TRIPOS>ATOM
      1 C         143.4886  143.0366  164.0032 C.ar    1  UNL1        0.0730
      2 C         142.4978  144.1618  164.0484 C.ar    1  UNL1        0.0322
      3 C         141.9699  144.7481  162.7726 C.ar    1  UNL1        0.0654
      4 C         142.4329  144.2091  161.4516 C.ar    1  UNL1        0.1133
      5 N         143.4238  143.0839  161.4063 N.ar    1  UNL1       -0.2367
      6 C         143.9516  142.4976  162.6821 C.ar    1  UNL1        0.1476
      7 C         144.9425  141.3724  162.6369 C.2     1  UNL1        0.2617
      8 N         144.5888  140.0889  161.9459 N.am    1  UNL1       -0.3240
      9 O         146.2871  141.5307  163.2827 O.2     1  UNL1       -0.2687
     10 H         143.7063  139.9850  161.5220 H       1  UNL1        0.1453
     11 H         145.2392  139.3504  161.9162 H       1  UNL1        0.1453
     12 N         144.0165  142.4503  165.2790 N.pl3   1  UNL1       -0.2966
     13 H         144.9874  142.3574  165.4133 H       1  UNL1        0.1537
     14 C         142.4630  142.5362  170.2367 C.3     1  UNL1        0.0312
     15 C         142.2884  142.0486  168.8289 C.ar    1  UNL1       -0.0179
     16 C         141.1626  141.1163  168.4923 C.ar    1  UNL1        0.0106
     17 C         140.9881  140.6287  167.0845 C.ar    1  UNL1        0.0605
     18 C         139.8622  139.6963  166.7479 C.3     1  UNL1        0.0521
     19 N         141.9394  141.0733  166.0134 N.ar    1  UNL1       -0.2349
     20 C         143.0652  142.0056  166.3501 C.ar    1  UNL1        0.1315
     21 C         143.2397  142.4932  167.7578 C.ar    1  UNL1        0.0301
     22 N         140.9790  145.8733  162.8178 N.pl3   1  UNL1       -0.3303
     23 H         141.2435  146.7476  163.1849 H       1  UNL1        0.1469
     24 C         139.5851  145.6663  162.3037 C.3     1  UNL1        0.1029
     25 C         138.6429  144.7575  163.0359 C.3     1  UNL1        0.0763
     26 N         137.7024  143.8762  162.2684 N.3     1  UNL1       -0.3207
     27 H         137.8387  144.0231  161.2683 H       1  UNL1        0.1189
     28 H         136.7406  144.1066  162.5180 H       1  UNL1        0.1189
     29 C         138.6411  144.7298  164.5356 C.3     1  UNL1        0.0895
     30 C         139.1246  143.5109  165.2639 C.3     1  UNL1        0.3200
     31 F         138.6353  142.1519  164.8590 F       1  UNL1       -0.1984
     32 F         140.0975  143.6508  166.3970 F       1  UNL1       -0.1984
@<TRIPOS>BOND
     1    14    15    1
     2    15    16   ar
     3    16    17   ar
     4    17    18    1
     5    17    19   ar
     6    19    20   ar
     7    20    12    1
     8    12     1    1
     9     1     2   ar
    10     2     3   ar
    11     3    22    1
    12    22    24    1
    13    24    25    1
    14    25    26    1
    15    25    29    1
    16    29    30    1
    17    30    31    1
    18    30    32    1
    19     3     4   ar
    20     4     5   ar
    21     5     6   ar
    22     6     7    1
    23     7     8   am
    24     7     9    2
    25    20    21   ar
    26    21    15   ar
    27     6     1   ar
    28    12    13    1
    29    22    23    1
    30    26    27    1
    31    26    28    1
    32     8    10    1
    33     8    11    1
@<TRIPOS>MOLECULE
*****
 32 33 0 0 0
SMALL
GASTEIGER

@<TRIPOS>ATOM
      1 C         139.4804  141.0039  165.5592 C.ar    1  UNL1        0.0730
      2 C         139.9211  140.9027  166.9894 C.ar    1  UNL1        0.0322
      3 C         139.2765  139.9036  167.9040 C.ar    1  UNL1        0.0654
      4 C         138.1912  139.0058  167.3883 C.ar    1  UNL1        0.1133
      5 N         137.7505  139.1070  165.9580 N.ar    1  UNL1       -0.2367
      6 C         138.3951  140.1060  165.0435 C.ar    1  UNL1        0.1476
      7 C         137.9544  140.2072  163.6133 C.2     1  UNL1        0.2617
      8 N         136.9213  141.2197  163.2167 N.am    1  UNL1       -0.3240
      9 O         138.5469  139.2958  162.5797 O.2     1  UNL1       -0.2687
     10 H         136.5324  141.8179  163.8951 H       1  UNL1        0.1453
     11 H         136.6320  141.2861  162.2780 H       1  UNL1        0.1453
     12 N         140.1250  142.0030  164.6447 N.pl3   1  UNL1       -0.2966
     13 H         139.5740  142.6782  164.1867 H       1  UNL1        0.1537
     14 C         144.8624  143.8693  165.6810 C.3     1  UNL1        0.0312
     15 C         143.9776  142.9064  164.9461 C.ar    1  UNL1       -0.0179
     16 C         144.5768  141.9138  163.9945 C.ar    1  UNL1        0.0106
     17 C         143.6921  140.9509  163.2596 C.ar    1  UNL1        0.0605
     18 C         144.2914  139.9582  162.3079 C.3     1  UNL1        0.0521
     19 N         142.2082  140.9806  163.4763 N.ar    1  UNL1       -0.2349
     20 C         141.6090  141.9732  164.4279 C.ar    1  UNL1        0.1315
     21 C         142.4937  142.9361  165.1628 C.ar    1  UNL1        0.0301
     22 N         139.7172  139.8024  169.3342 N.pl3   1  UNL1       -0.3303
     23 H         139.0532  139.6462  170.0440 H       1  UNL1        0.1469
     24 C         141.1697  139.9393  169.6829 C.3     1  UNL1        0.1029
     25 C         141.6250  141.0566  170.5742 C.3     1  UNL1        0.0763
     26 N         142.0839  140.7618  171.9716 N.3     1  UNL1       -0.3207
     27 H         142.0206  139.7588  172.1457 H       1  UNL1        0.1189
     28 H         141.4919  141.2602  172.6360 H       1  UNL1        0.1189
     29 C         141.6215  142.4686  170.0681 C.3     1  UNL1        0.0895
     30 C         140.3235  143.2004  169.8959 C.3     1  UNL1        0.3200
     31 F         140.0398  143.9339  168.6185 F       1  UNL1       -0.1984
     32 F         139.3092  143.1986  171.0009 F       1  UNL1       -0.1984
@<TRIPOS>BOND
     1    14    15    1
     2    15    16   ar
     3    16    17   ar
     4    17    18    1
     5    17    19   ar
     6    19    20   ar
     7    20    12    1
     8    12     1    1
     9     1     2   ar
    10     2     3   ar
    11     3    22    1
    12    22    24    1
    13    24    25    1
    14    25    26    1
    15    25    29    1
    16    29    30    1
    17    30    31    1
    18    30    32    1
    19     3     4   ar
    20     4     5   ar
    21     5     6   ar
    22     6     7    1
    23     7     8   am
    24     7     9    2
    25    20    21   ar
    26    21    15   ar
    27     6     1   ar
    28    12    13    1
    29    22    23    1
    30    26    27    1
    31    26    28    1
    32     8    10    1
    33     8    11    1
@<TRIPOS>MOLECULE
*****
 32 33 0 0 0
SMALL
GASTEIGER

@<TRIPOS>ATOM
      1 C         140.0502  140.1901  165.2962 C.ar    1  UNL1        0.0730
      2 C         140.3875  140.2415  166.7569 C.ar    1  UNL1        0.0322
      3 C         139.4106  139.7242  167.7709 C.ar    1  UNL1        0.0654
      4 C         138.0965  139.1555  167.3243 C.ar    1  UNL1        0.1133
      5 N         137.7592  139.1040  165.8636 N.ar    1  UNL1       -0.2367
      6 C         138.7359  139.6213  164.8496 C.ar    1  UNL1        0.1476
      7 C         138.3986  139.5698  163.3889 C.2     1  UNL1        0.2617
      8 N         137.4223  140.5503  162.8096 N.am    1  UNL1       -0.3240
      9 O         139.0376  138.5379  162.5075 O.2     1  UNL1       -0.2687
     10 H         137.0030  141.2276  163.3881 H       1  UNL1        0.1453
     11 H         137.2009  140.5165  161.8510 H       1  UNL1        0.1453
     12 N         141.0269  140.7074  164.2822 N.pl3   1  UNL1       -0.2966
     13 H         141.6326  140.0842  163.8196 H       1  UNL1        0.1537
     14 C         143.6979  145.1572  164.0279 C.3     1  UNL1        0.0312
     15 C         142.4165  144.3991  163.8459 C.ar    1  UNL1       -0.0179
     16 C         141.1891  145.1077  163.3547 C.ar    1  UNL1        0.0106
     17 C         139.9076  144.3496  163.1727 C.ar    1  UNL1        0.0605
     18 C         138.6802  145.0583  162.6815 C.3     1  UNL1        0.0521
     19 N         139.8536  142.8828  163.4818 N.ar    1  UNL1       -0.2349
     20 C         141.0810  142.1742  163.9730 C.ar    1  UNL1        0.1315
     21 C         142.3624  142.9323  164.1550 C.ar    1  UNL1        0.0301
     22 N         139.7480  139.7757  169.2316 N.pl3   1  UNL1       -0.3303
     23 H         139.0290  139.7564  169.9038 H       1  UNL1        0.1469
     24 C         141.1809  139.8566  169.6680 C.3     1  UNL1        0.1029
     25 C         141.6484  141.0170  170.4955 C.3     1  UNL1        0.0763
     26 N         142.1766  140.7861  171.8804 N.3     1  UNL1       -0.3207
     27 H         142.1457  139.7892  172.0942 H       1  UNL1        0.1189
     28 H         141.6031  141.2959  172.5524 H       1  UNL1        0.1189
     29 C         141.5878  142.4083  169.9383 C.3     1  UNL1        0.0895
     30 C         140.3629  143.2480  170.1492 C.3     1  UNL1        0.3200
     31 F         140.4135  144.7255  169.8951 F       1  UNL1       -0.1984
     32 F         139.0873  142.6103  170.6141 F       1  UNL1       -0.1984
@<TRIPOS>BOND
     1    14    15    1
     2    15    16   ar
     3    16    17   ar
     4    17    18    1
     5    17    19   ar
     6    19    20   ar
     7    20    12    1
     8    12     1    1
     9     1     2   ar
    10     2     3   ar
    11     3    22    1
    12    22    24    1
    13    24    25    1
    14    25    26    1
    15    25    29    1
    16    29    30    1
    17    30    31    1
    18    30    32    1
    19     3     4   ar
    20     4     5   ar
    21     5     6   ar
    22     6     7    1
    23     7     8   am
    24     7     9    2
    25    20    21   ar
    26    21    15   ar
    27     6     1   ar
    28    12    13    1
    29    22    23    1
    30    26    27    1
    31    26    28    1
    32     8    10    1
    33     8    11    1
@<TRIPOS>MOLECULE
*****
 32 33 0 0 0
SMALL
GASTEIGER

@<TRIPOS>ATOM
      1 C         141.1901  143.2916  163.6695 C.ar    1  UNL1        0.0730
      2 C         142.3951  142.6467  164.2874 C.ar    1  UNL1        0.0322
      3 C         143.7712  143.0675  163.8637 C.ar    1  UNL1        0.0654
      4 C         143.9421  144.1332  162.8220 C.ar    1  UNL1        0.1133
      5 N         142.7370  144.7781  162.2041 N.ar    1  UNL1       -0.2367
      6 C         141.3610  144.3574  162.6278 C.ar    1  UNL1        0.1476
      7 C         140.1559  145.0023  162.0098 C.2     1  UNL1        0.2617
      8 N         139.9999  146.4936  162.0498 N.am    1  UNL1       -0.3240
      9 O         139.1068  144.1558  161.3518 O.2     1  UNL1       -0.2687
     10 H         140.6885  147.0491  162.4817 H       1  UNL1        0.1453
     11 H         139.2090  146.9168  161.6442 H       1  UNL1        0.1453
     12 N         139.8141  142.8708  164.0931 N.pl3   1  UNL1       -0.2966
     13 H         139.1421  143.5507  164.3287 H       1  UNL1        0.1537
     14 C         139.5964  138.1896  161.8484 C.3     1  UNL1        0.0312
     15 C         139.3530  139.0736  163.0356 C.ar    1  UNL1       -0.0179
     16 C         138.7575  138.5010  164.2875 C.ar    1  UNL1        0.0106
     17 C         138.5142  139.3849  165.4747 C.ar    1  UNL1        0.0605
     18 C         137.9186  138.8122  166.7267 C.3     1  UNL1        0.0521
     19 N         138.8664  140.8415  165.4099 N.ar    1  UNL1       -0.2349
     20 C         139.4619  141.4142  164.1580 C.ar    1  UNL1        0.1315
     21 C         139.7052  140.5302  162.9708 C.ar    1  UNL1        0.0301
     22 N         144.9763  142.4226  164.4816 N.pl3   1  UNL1       -0.3303
     23 H         145.3444  142.7734  165.3246 H       1  UNL1        0.1469
     24 C         145.6204  141.2432  163.8151 C.3     1  UNL1        0.1029
     25 C         144.8347  139.9845  163.5952 C.3     1  UNL1        0.0763
     26 N         144.6333  139.4595  162.2045 N.3     1  UNL1       -0.3207
     27 H         145.0947  140.0779  161.5374 H       1  UNL1        0.1189
     28 H         143.6353  139.4198  161.9973 H       1  UNL1        0.1189
     29 C         144.2505  139.2509  164.7658 C.3     1  UNL1        0.0895
     30 C         142.7987  138.8736  164.7658 C.3     1  UNL1        0.3200
     31 F         142.3022  137.8022  163.8409 F       1  UNL1       -0.1984
     32 F         141.8435  139.5678  165.6908 F       1  UNL1       -0.1984
@<TRIPOS>BOND
     1    14    15    1
     2    15    16   ar
     3    16    17   ar
     4    17    18    1
     5    17    19   ar
     6    19    20   ar
     7    20    12    1
     8    12     1    1
     9     1     2   ar
    10     2     3   ar
    11     3    22    1
    12    22    24    1
    13    24    25    1
    14    25    26    1
    15    25    29    1
    16    29    30    1
    17    30    31    1
    18    30    32    1
    19     3     4   ar
    20     4     5   ar
    21     5     6   ar
    22     6     7    1
    23     7     8   am
    24     7     9    2
    25    20    21   ar
    26    21    15   ar
    27     6     1   ar
    28    12    13    1
    29    22    23    1
    30    26    27    1
    31    26    28    1
    32     8    10    1
    33     8    11    1
@<TRIPOS>MOLECULE
*****
 32 33 0 0 0
SMALL
GASTEIGER

@<TRIPOS>ATOM
      1 C         140.1399  140.4965  167.1258 C.ar    1  UNL1        0.0730
      2 C         139.8974  139.9658  165.7440 C.ar    1  UNL1        0.0322
      3 C         138.7894  138.9841  165.5013 C.ar    1  UNL1        0.0654
      4 C         137.9240  138.5333  166.6405 C.ar    1  UNL1        0.1133
      5 N         138.1665  139.0641  168.0223 N.ar    1  UNL1       -0.2367
      6 C         139.2744  140.0457  168.2650 C.ar    1  UNL1        0.1476
      7 C         139.5169  140.5764  169.6468 C.2     1  UNL1        0.2617
      8 N         139.4532  139.6527  170.8269 N.am    1  UNL1       -0.3240
      9 O         139.8232  142.0309  169.8485 O.2     1  UNL1       -0.2687
     10 H         139.2522  138.6981  170.6946 H       1  UNL1        0.1453
     11 H         139.6123  140.0011  171.7339 H       1  UNL1        0.1453
     12 N         141.2478  141.4781  167.3685 N.pl3   1  UNL1       -0.2966
     13 H         141.5626  141.6483  168.2856 H       1  UNL1        0.1537
     14 C         145.3166  142.2767  164.2368 C.3     1  UNL1        0.0312
     15 C         143.9106  142.5997  164.6479 C.ar    1  UNL1       -0.0179
     16 C         143.1331  143.6449  163.9043 C.ar    1  UNL1        0.0106
     17 C         141.7272  143.9679  164.3154 C.ar    1  UNL1        0.0605
     18 C         140.9497  145.0132  163.5717 C.3     1  UNL1        0.0521
     19 N         141.0988  143.2457  165.4701 N.ar    1  UNL1       -0.2349
     20 C         141.8763  142.2004  166.2137 C.ar    1  UNL1        0.1315
     21 C         143.2822  141.8775  165.8026 C.ar    1  UNL1        0.0301
     22 N         138.5469  138.4534  164.1195 N.pl3   1  UNL1       -0.3303
     23 H         138.2280  137.5302  163.9957 H       1  UNL1        0.1469
     24 C         138.7903  139.3292  162.9262 C.3     1  UNL1        0.1029
     25 C         137.7240  140.2762  162.4610 C.3     1  UNL1        0.0763
     26 N         136.9606  139.9865  161.2027 N.3     1  UNL1       -0.3207
     27 H         137.2944  139.1126  160.7961 H       1  UNL1        0.1189
     28 H         137.1011  140.7466  160.5372 H       1  UNL1        0.1189
     29 C         137.4211  141.5128  163.2541 C.3     1  UNL1        0.0895
     30 C         137.7448  142.8641  162.6892 C.3     1  UNL1        0.3200
     31 F         138.1687  142.9961  161.2564 F       1  UNL1       -0.1984
     32 F         137.6446  144.0834  163.5571 F       1  UNL1       -0.1984
@<TRIPOS>BOND
     1    14    15    1
     2    15    16   ar
     3    16    17   ar
     4    17    18    1
     5    17    19   ar
     6    19    20   ar
     7    20    12    1
     8    12     1    1
     9     1     2   ar
    10     2     3   ar
    11     3    22    1
    12    22    24    1
    13    24    25    1
    14    25    26    1
    15    25    29    1
    16    29    30    1
    17    30    31    1
    18    30    32    1
    19     3     4   ar
    20     4     5   ar
    21     5     6   ar
    22     6     7    1
    23     7     8   am
    24     7     9    2
    25    20    21   ar
    26    21    15   ar
    27     6     1   ar
    28    12    13    1
    29    22    23    1
    30    26    27    1
    31    26    28    1
    32     8    10    1
    33     8    11    1
@<TRIPOS>MOLECULE
*****
 32 33 0 0 0
SMALL
GASTEIGER

@<TRIPOS>ATOM
      1 C         141.4772  143.7803  164.4227 C.ar    1  UNL1        0.0730
      2 C         142.7640  143.1421  164.8550 C.ar    1  UNL1        0.0322
      3 C         143.9794  143.2379  163.9810 C.ar    1  UNL1        0.0654
      4 C         143.9079  143.9718  162.6748 C.ar    1  UNL1        0.1133
      5 N         142.6211  144.6100  162.2425 N.ar    1  UNL1       -0.2367
      6 C         141.4058  144.5142  163.1164 C.ar    1  UNL1        0.1476
      7 C         140.1190  145.1523  162.6840 C.2     1  UNL1        0.2617
      8 N         140.1166  146.5605  162.1673 N.am    1  UNL1       -0.3240
      9 O         138.8345  144.3822  162.7685 O.2     1  UNL1       -0.2687
     10 H         140.9597  147.0659  162.1118 H       1  UNL1        0.1453
     11 H         139.2721  146.9793  161.8835 H       1  UNL1        0.1453
     12 N         140.2618  143.6845  165.2965 N.pl3   1  UNL1       -0.2966
     13 H         139.6047  144.4174  165.3078 H       1  UNL1        0.1537
     14 C         140.6456  141.3008  169.8977 C.3     1  UNL1        0.0312
     15 C         140.2396  141.2801  168.4538 C.ar    1  UNL1       -0.0179
     16 C         139.6196  140.0470  167.8667 C.ar    1  UNL1        0.0106
     17 C         139.2136  140.0263  166.4228 C.ar    1  UNL1        0.0605
     18 C         138.5934  138.7930  165.8357 C.3     1  UNL1        0.0521
     19 N         139.4276  141.2388  165.5661 N.ar    1  UNL1       -0.2349
     20 C         140.0477  142.4719  166.1533 C.ar    1  UNL1        0.1315
     21 C         140.4537  142.4926  167.5971 C.ar    1  UNL1        0.0301
     22 N         145.2662  142.5998  164.4134 N.pl3   1  UNL1       -0.3303
     23 H         145.7689  142.9716  165.1738 H       1  UNL1        0.1469
     24 C         145.7870  141.3951  163.6871 C.3     1  UNL1        0.1029
     25 C         144.9181  140.1832  163.5250 C.3     1  UNL1        0.0763
     26 N         144.5315  139.7155  162.1532 N.3     1  UNL1       -0.3207
     27 H         144.9441  140.3335  161.4545 H       1  UNL1        0.1189
     28 H         143.5156  139.7302  162.0627 H       1  UNL1        0.1189
     29 C         144.4356  139.4391  164.7348 C.3     1  UNL1        0.0895
     30 C         143.0534  139.6833  165.2638 C.3     1  UNL1        0.3200
     31 F         142.8653  140.2090  166.6561 F       1  UNL1       -0.1984
     32 F         141.8594  139.4020  164.4006 F       1  UNL1       -0.1984
@<TRIPOS>BOND
     1    14    15    1
     2    15    16   ar
     3    16    17   ar
     4    17    18    1
     5    17    19   ar
     6    19    20   ar
     7    20    12    1
     8    12     1    1
     9     1     2   ar
    10     2     3   ar
    11     3    22    1
    12    22    24    1
    13    24    25    1
    14    25    26    1
    15    25    29    1
    16    29    30    1
    17    30    31    1
    18    30    32    1
    19     3     4   ar
    20     4     5   ar
    21     5     6   ar
    22     6     7    1
    23     7     8   am
    24     7     9    2
    25    20    21   ar
    26    21    15   ar
    27     6     1   ar
    28    12    13    1
    29    22    23    1
    30    26    27    1
    31    26    28    1
    32     8    10    1
    33     8    11    1
@<TRIPOS>MOLECULE
*****
 32 33 0 0 0
SMALL
GASTEIGER

@<TRIPOS>ATOM
      1 C         139.3288  143.5615  162.7520 C.ar    1  UNL1        0.0730
      2 C         138.5615  142.2843  162.9252 C.ar    1  UNL1        0.0322
      3 C         138.0314  141.5590  161.7239 C.ar    1  UNL1        0.0654
      4 C         138.2686  142.1110  160.3495 C.ar    1  UNL1        0.1133
      5 N         139.0359  143.3882  160.1763 N.ar    1  UNL1       -0.2367
      6 C         139.5660  144.1135  161.3775 C.ar    1  UNL1        0.1476
      7 C         140.3333  145.3907  161.2044 C.2     1  UNL1        0.2617
      8 N         141.6109  145.3974  160.4186 N.am    1  UNL1       -0.3240
      9 O         139.8228  146.6612  161.8170 O.2     1  UNL1       -0.2687
     10 H         141.9459  144.5636  160.0165 H       1  UNL1        0.1453
     11 H         142.1145  146.2357  160.3049 H       1  UNL1        0.1453
     12 N         139.8589  144.2868  163.9533 N.pl3   1  UNL1       -0.2966
     13 H         139.5557  145.2028  164.1487 H       1  UNL1        0.1537
     14 C         140.9348  141.7397  168.3527 C.3     1  UNL1        0.0312
     15 C         141.3889  142.3428  167.0565 C.ar    1  UNL1       -0.0179
     16 C         142.8350  142.2755  166.6639 C.ar    1  UNL1        0.0106
     17 C         143.2891  142.8787  165.3677 C.ar    1  UNL1        0.0605
     18 C         144.7353  142.8114  164.9751 C.3     1  UNL1        0.0521
     19 N         142.2971  143.5491  164.4642 N.ar    1  UNL1       -0.2349
     20 C         140.8510  143.6164  164.8568 C.ar    1  UNL1        0.1315
     21 C         140.3969  143.0132  166.1530 C.ar    1  UNL1        0.0301
     22 N         137.2642  140.2818  161.8971 N.pl3   1  UNL1       -0.3303
     23 H         136.3300  140.3069  162.2068 H       1  UNL1        0.1469
     24 C         137.9203  138.9664  161.5985 C.3     1  UNL1        0.1029
     25 C         138.9268  138.3964  162.5535 C.3     1  UNL1        0.0763
     26 N         140.1481  137.7008  162.0292 N.3     1  UNL1       -0.3207
     27 H         140.1318  137.7077  161.0093 H       1  UNL1        0.1189
     28 H         140.1599  136.7369  162.3625 H       1  UNL1        0.1189
     29 C         138.7121  138.5218  164.0327 C.3     1  UNL1        0.0895
     30 C         139.5185  139.5063  164.8268 C.3     1  UNL1        0.3200
     31 F         139.0703  139.9079  166.2008 F       1  UNL1       -0.1984
     32 F         140.7731  140.0890  164.2469 F       1  UNL1       -0.1984
@<TRIPOS>BOND
     1    14    15    1
     2    15    16   ar
     3    16    17   ar
     4    17    18    1
     5    17    19   ar
     6    19    20   ar
     7    20    12    1
     8    12     1    1
     9     1     2   ar
    10     2     3   ar
    11     3    22    1
    12    22    24    1
    13    24    25    1
    14    25    26    1
    15    25    29    1
    16    29    30    1
    17    30    31    1
    18    30    32    1
    19     3     4   ar
    20     4     5   ar
    21     5     6   ar
    22     6     7    1
    23     7     8   am
    24     7     9    2
    25    20    21   ar
    26    21    15   ar
    27     6     1   ar
    28    12    13    1
    29    22    23    1
    30    26    27    1
    31    26    28    1
    32     8    10    1
    33     8    11    1
@<TRIPOS>MOLECULE
*****
 32 33 0 0 0
SMALL
GASTEIGER

@<TRIPOS>ATOM
      1 C         140.6556  139.3852  165.5148 C.ar    1  UNL1        0.0730
      2 C         141.0227  139.7377  166.9258 C.ar    1  UNL1        0.0322
      3 C         142.3921  139.4166  167.4470 C.ar    1  UNL1        0.0654
      4 C         143.3944  138.7431  166.5572 C.ar    1  UNL1        0.1133
      5 N         143.0273  138.3906  165.1461 N.ar    1  UNL1       -0.2367
      6 C         141.6579  138.7116  164.6249 C.ar    1  UNL1        0.1476
      7 C         141.2908  138.3591  163.2139 C.2     1  UNL1        0.2617
      8 N         141.3760  139.3977  162.1350 N.am    1  UNL1       -0.3240
      9 O         140.8384  136.9680  162.8818 O.2     1  UNL1       -0.2687
     10 H         141.6728  140.3107  162.3530 H       1  UNL1        0.1453
     11 H         141.1350  139.1663  161.2089 H       1  UNL1        0.1453
     12 N         139.2862  139.7062  164.9936 N.pl3   1  UNL1       -0.2966
     13 H         138.5624  139.0433  165.0702 H       1  UNL1        0.1537
     14 C         138.5794  144.8369  165.4134 C.3     1  UNL1        0.0312
     15 C         138.6662  143.6027  164.5655 C.ar    1  UNL1       -0.0179
     16 C         138.4864  143.6995  163.0795 C.ar    1  UNL1        0.0106
     17 C         138.5731  142.4653  162.2315 C.ar    1  UNL1        0.0605
     18 C         138.3933  142.5621  160.7454 C.3     1  UNL1        0.0521
     19 N         138.8398  141.1342  162.8695 N.ar    1  UNL1       -0.2349
     20 C         139.0196  141.0373  164.3555 C.ar    1  UNL1        0.1315
     21 C         138.9328  142.2716  165.2035 C.ar    1  UNL1        0.0301
     22 N         142.7593  139.7691  168.8580 N.pl3   1  UNL1       -0.3303
     23 H         143.6940  139.9778  169.0860 H       1  UNL1        0.1469
     24 C         141.7022  139.8036  169.9217 C.3     1  UNL1        0.1029
     25 C         141.3242  141.1066  170.5615 C.3     1  UNL1        0.0763
     26 N         142.0849  141.6048  171.7545 N.3     1  UNL1       -0.3207
     27 H         142.8186  140.9375  171.9929 H       1  UNL1        0.1189
     28 H         141.4484  141.7071  172.5450 H       1  UNL1        0.1189
     29 C         140.1857  141.9114  170.0083 C.3     1  UNL1        0.0895
     30 C         140.4621  143.1372  169.1892 C.3     1  UNL1        0.3200
     31 F         140.8862  143.0021  167.7566 F       1  UNL1       -0.1984
     32 F         140.3145  144.4980  169.8025 F       1  UNL1       -0.1984
@<TRIPOS>BOND
     1    14    15    1
     2    15    16   ar
     3    16    17   ar
     4    17    18    1
     5    17    19   ar
     6    19    20   ar
     7    20    12    1
     8    12     1    1
     9     1     2   ar
    10     2     3   ar
    11     3    22    1
    12    22    24    1
    13    24    25    1
    14    25    26    1
    15    25    29    1
    16    29    30    1
    17    30    31    1
    18    30    32    1
    19     3     4   ar
    20     4     5   ar
    21     5     6   ar
    22     6     7    1
    23     7     8   am
    24     7     9    2
    25    20    21   ar
    26    21    15   ar
    27     6     1   ar
    28    12    13    1
    29    22    23    1
    30    26    27    1
    31    26    28    1
    32     8    10    1
    33     8    11    1
@<TRIPOS>MOLECULE
*****
 32 33 0 0 0
SMALL
GASTEIGER

@<TRIPOS>ATOM
      1 C         142.1836  141.1111  162.8819 C.ar    1  UNL1        0.0730
      2 C         141.7250  142.5209  162.6536 C.ar    1  UNL1        0.0322
      3 C         142.6964  143.5565  162.1697 C.ar    1  UNL1        0.0654
      4 C         144.1262  143.1822  161.9140 C.ar    1  UNL1        0.1133
      5 N         144.5848  141.7724  162.1423 N.ar    1  UNL1       -0.2367
      6 C         143.6135  140.7368  162.6263 C.ar    1  UNL1        0.1476
      7 C         144.0721  139.3270  162.8546 C.2     1  UNL1        0.2617
      8 N         144.5999  138.5152  161.7090 N.am    1  UNL1       -0.3240
      9 O         144.0028  138.7290  164.2285 O.2     1  UNL1       -0.2687
     10 H         144.6454  138.9077  160.8073 H       1  UNL1        0.1453
     11 H         144.9009  137.5899  161.8589 H       1  UNL1        0.1453
     12 N         141.2123  140.0756  163.3658 N.pl3   1  UNL1       -0.2966
     13 H         140.8855  139.3810  162.7494 H       1  UNL1        0.1537
     14 C         137.7601  138.6617  166.9829 C.3     1  UNL1        0.0312
     15 C         139.0127  139.3914  166.5975 C.ar    1  UNL1       -0.0179
     16 C         139.7918  140.1439  167.6352 C.ar    1  UNL1        0.0106
     17 C         141.0443  140.8736  167.2498 C.ar    1  UNL1        0.0605
     18 C         141.8234  141.6261  168.2875 C.3     1  UNL1        0.0521
     19 N         141.5179  140.8508  165.8267 N.ar    1  UNL1       -0.2349
     20 C         140.7388  140.0984  164.7890 C.ar    1  UNL1        0.1315
     21 C         139.4862  139.3687  165.1744 C.ar    1  UNL1        0.0301
     22 N         142.2378  144.9663  161.9413 N.pl3   1  UNL1       -0.3303
     23 H         142.5837  145.4785  161.1750 H       1  UNL1        0.1469
     24 C         141.2522  145.5958  162.8808 C.3     1  UNL1        0.1029
     25 C         139.7882  145.5775  162.5546 C.3     1  UNL1        0.0763
     26 N         139.2766  146.3262  161.3597 N.3     1  UNL1       -0.3207
     27 H         140.0551  146.7866  160.8880 H       1  UNL1        0.1189
     28 H         138.5998  147.0270  161.6617 H       1  UNL1        0.1189
     29 C         138.8359  144.8106  163.4233 C.3     1  UNL1        0.0895
     30 C         139.1117  144.6628  164.8903 C.3     1  UNL1        0.3200
     31 F         138.3380  145.4769  165.8847 F       1  UNL1       -0.1984
     32 F         140.1613  143.7010  165.3630 F       1  UNL1       -0.1984
@<TRIPOS>BOND
     1    14    15    1
     2    15    16   ar
     3    16    17   ar
     4    17    18    1
     5    17    19   ar
     6    19    20   ar
     7    20    12    1
     8    12     1    1
     9     1     2   ar
    10     2     3   ar
    11     3    22    1
    12    22    24    1
    13    24    25    1
    14    25    26    1
    15    25    29    1
    16    29    30    1
    17    30    31    1
    18    30    32    1
    19     3     4   ar
    20     4     5   ar
    21     5     6   ar
    22     6     7    1
    23     7     8   am
    24     7     9    2
    25    20    21   ar
    26    21    15   ar
    27     6     1   ar
    28    12    13    1
    29    22    23    1
    30    26    27    1
    31    26    28    1
    32     8    10    1
    33     8    11    1
