@<TRIPOS>MOLECULE
*****
 30 33 0 0 0
SMALL
GASTEIGER

@<TRIPOS>ATOM
      1 C         139.7871  141.6617  165.3779 C.2     1  UNL1        0.0020
      2 C         140.1353  142.1232  166.7620 C.2     1  UNL1        0.0129
      3 C         140.1220  141.1494  167.9028 C.3     1  UNL1        0.1529
      4 C         140.0781  140.0964  168.9703 C.3     1  UNL1        0.0458
      5 C         140.3694  140.2369  170.4351 C.3     1  UNL1        0.0210
      6 C         140.7766  141.4648  171.1940 C.3     1  UNL1        0.0687
      7 N         140.9931  142.8558  170.6759 N.3     1  UNL1       -0.2973
      8 C         140.8557  143.3622  169.2706 C.3     1  UNL1        0.0725
      9 C         140.4681  142.6027  168.0365 C.3     1  UNL1        0.0614
     10 O         139.7604  139.7141  167.6596 O.3     1  UNL1       -0.4785
     11 C         139.4122  139.2526  166.2755 C.ar    1  UNL1        0.1386
     12 C         139.0506  137.8173  166.0322 C.ar    1  UNL1        0.0369
     13 C         138.7024  137.3558  164.6481 C.ar    1  UNL1        0.0031
     14 C         138.7157  138.3296  163.5073 C.ar    1  UNL1        0.0002
     15 C         139.0773  139.7649  163.7505 C.ar    1  UNL1        0.0030
     16 C         139.4255  140.2264  165.1347 C.ar    1  UNL1        0.0338
     17 H         141.9542  143.0782  170.9349 H       1  UNL1        0.1232
     18 C         139.8271  144.5831  161.9554 C.ar    1  UNL1        0.0536
     19 C         138.5231  144.1538  162.5598 C.ar    1  UNL1        0.0045
     20 C         138.5097  143.1800  163.7006 C.ar    1  UNL1        0.0001
     21 C         139.8004  142.6355  164.2371 C.ar    1  UNL1       -0.0001
     22 C         141.1044  143.0648  163.6326 C.ar    1  UNL1        0.0001
     23 C         141.1177  144.0386  162.4918 C.ar    1  UNL1        0.0045
     24 N         140.2342  145.0985  159.4417 N.am    1  UNL1       -0.2761
     25 C         139.8404  145.5570  160.8145 C.2     1  UNL1        0.2490
     26 O         139.4599  146.9892  161.0466 O.2     1  UNL1       -0.2699
     27 C         141.3001  145.9674  157.2373 C.3     1  UNL1        0.0233
     28 C         140.2474  146.0724  158.3009 C.3     1  UNL1        0.0938
     29 C         140.6146  143.6663  159.2096 C.3     1  UNL1        0.0938
     30 C         139.5524  142.6430  158.9360 C.3     1  UNL1        0.0233
@<TRIPOS>BOND
     1    27    28    1
     2    28    24    1
     3    24    29    1
     4    29    30    1
     5    24    25   am
     6    25    26    2
     7    25    18    1
     8    18    19   ar
     9    19    20   ar
    10    20    21   ar
    11    21     1    1
    12     1     2    2
    13     2     3    1
    14     3     4    1
    15     4     5    1
    16     5     6    1
    17     6     7    1
    18     7     8    1
    19     8     9    1
    20     3    10    1
    21    10    11    1
    22    11    12   ar
    23    12    13   ar
    24    13    14   ar
    25    14    15   ar
    26    15    16   ar
    27    21    22   ar
    28    22    23   ar
    29    23    18   ar
    30    16     1    1
    31     9     3    1
    32    16    11   ar
    33     7    17    1
@<TRIPOS>MOLECULE
*****
 30 33 0 0 0
SMALL
GASTEIGER

@<TRIPOS>ATOM
      1 C         141.6477  142.0455  165.7764 C.2     1  UNL1        0.0020
      2 C         141.1799  142.4127  167.1535 C.2     1  UNL1        0.0129
      3 C         141.5508  141.5531  168.3255 C.3     1  UNL1        0.1529
      4 C         141.9770  140.6271  169.4260 C.3     1  UNL1        0.0458
      5 C         141.6763  140.7170  170.8929 C.3     1  UNL1        0.0210
      6 C         140.8753  141.7550  171.6214 C.3     1  UNL1        0.0687
      7 N         140.1770  142.9595  171.0632 N.3     1  UNL1       -0.2973
      8 C         140.1073  143.4235  169.6385 C.3     1  UNL1        0.0725
      9 C         140.7187  142.7975  168.4201 C.3     1  UNL1        0.0614
     10 O         142.3894  140.3264  168.1205 O.3     1  UNL1       -0.4785
     11 C         142.8571  139.9593  166.7434 C.ar    1  UNL1        0.1386
     12 C         143.6957  138.7326  166.5382 C.ar    1  UNL1        0.0369
     13 C         144.1634  138.3656  165.1612 C.ar    1  UNL1        0.0031
     14 C         143.7926  139.2251  163.9891 C.ar    1  UNL1        0.0002
     15 C         142.9540  140.4517  164.1942 C.ar    1  UNL1        0.0030
     16 C         142.4863  140.8189  165.5714 C.ar    1  UNL1        0.0338
     17 H         140.5824  143.7471  171.5689 H       1  UNL1        0.1232
     18 C         140.5350  144.6241  162.2604 C.ar    1  UNL1        0.0536
     19 C         141.7751  144.9254  163.0487 C.ar    1  UNL1        0.0045
     20 C         142.1460  144.0658  164.2208 C.ar    1  UNL1        0.0001
     21 C         141.2768  142.9050  164.6044 C.ar    1  UNL1       -0.0001
     22 C         140.0367  142.6039  163.8160 C.ar    1  UNL1        0.0001
     23 C         139.6659  143.4634  162.6440 C.ar    1  UNL1        0.0045
     24 N         140.7274  145.1843  159.7307 N.am    1  UNL1       -0.2761
     25 C         140.1642  145.4837  161.0883 C.2     1  UNL1        0.2490
     26 O         139.2303  146.6426  161.2740 O.2     1  UNL1       -0.2699
     27 C         141.0921  145.8987  157.2594 C.3     1  UNL1        0.0233
     28 C         140.3565  146.0440  158.5587 C.3     1  UNL1        0.0938
     29 C         141.6613  144.0253  159.5450 C.3     1  UNL1        0.0938
     30 C         141.1129  142.6583  159.2612 C.3     1  UNL1        0.0233
@<TRIPOS>BOND
     1    27    28    1
     2    28    24    1
     3    24    29    1
     4    29    30    1
     5    24    25   am
     6    25    26    2
     7    25    18    1
     8    18    19   ar
     9    19    20   ar
    10    20    21   ar
    11    21     1    1
    12     1     2    2
    13     2     3    1
    14     3     4    1
    15     4     5    1
    16     5     6    1
    17     6     7    1
    18     7     8    1
    19     8     9    1
    20     3    10    1
    21    10    11    1
    22    11    12   ar
    23    12    13   ar
    24    13    14   ar
    25    14    15   ar
    26    15    16   ar
    27    21    22   ar
    28    22    23   ar
    29    23    18   ar
    30    16     1    1
    31     9     3    1
    32    16    11   ar
    33     7    17    1
@<TRIPOS>MOLECULE
*****
 30 33 0 0 0
SMALL
GASTEIGER

@<TRIPOS>ATOM
      1 C         141.8977  142.3561  162.3695 C.2     1  UNL1        0.0020
      2 C         142.5072  141.4905  161.3068 C.2     1  UNL1        0.0129
      3 C         142.4206  141.8988  159.8661 C.3     1  UNL1        0.1529
      4 C         142.2779  142.3983  158.4588 C.3     1  UNL1        0.0458
      5 C         142.7716  141.7705  157.1890 C.3     1  UNL1        0.0210
      6 C         143.5297  140.4883  157.0129 C.3     1  UNL1        0.0687
      7 N         143.9815  139.5171  158.0630 N.3     1  UNL1       -0.2973
      8 C         143.7867  139.5883  159.5486 C.3     1  UNL1        0.0725
      9 C         143.0920  140.6483  160.3510 C.3     1  UNL1        0.0614
     10 O         141.7246  143.1727  159.4880 O.3     1  UNL1       -0.4785
     11 C         141.1152  144.0382  160.5507 C.ar    1  UNL1        0.1386
     12 C         140.4192  145.3121  160.1728 C.ar    1  UNL1        0.0369
     13 C         139.8098  146.1776  161.2355 C.ar    1  UNL1        0.0031
     14 C         139.8964  145.7693  162.6762 C.ar    1  UNL1        0.0002
     15 C         140.5923  144.4955  163.0543 C.ar    1  UNL1        0.0030
     16 C         141.2018  143.6299  161.9915 C.ar    1  UNL1        0.0338
     17 H         144.9925  139.4601  157.9402 H       1  UNL1        0.1232
     18 C         142.1573  141.1311  166.6918 C.ar    1  UNL1        0.0536
     19 C         143.1964  142.0410  166.1064 C.ar    1  UNL1        0.0045
     20 C         143.1098  142.4493  164.6657 C.ar    1  UNL1        0.0001
     21 C         141.9843  141.9478  163.8103 C.ar    1  UNL1       -0.0001
     22 C         140.9453  141.0379  164.3957 C.ar    1  UNL1        0.0001
     23 C         141.0318  140.6296  165.8365 C.ar    1  UNL1        0.0045
     24 N         141.5994  141.5674  169.1915 N.am    1  UNL1       -0.2761
     25 C         142.2439  140.7228  168.1326 C.2     1  UNL1        0.2490
     26 O         142.9750  139.4700  168.5144 O.2     1  UNL1       -0.2699
     27 C         140.6205  140.2890  171.2305 C.3     1  UNL1        0.0233
     28 C         141.6860  141.1591  170.6323 C.3     1  UNL1        0.0938
     29 C         140.8683  142.8203  168.8097 C.3     1  UNL1        0.0938
     30 C         140.4755  143.8107  169.8655 C.3     1  UNL1        0.0233
@<TRIPOS>BOND
     1    27    28    1
     2    28    24    1
     3    24    29    1
     4    29    30    1
     5    24    25   am
     6    25    26    2
     7    25    18    1
     8    18    19   ar
     9    19    20   ar
    10    20    21   ar
    11    21     1    1
    12     1     2    2
    13     2     3    1
    14     3     4    1
    15     4     5    1
    16     5     6    1
    17     6     7    1
    18     7     8    1
    19     8     9    1
    20     3    10    1
    21    10    11    1
    22    11    12   ar
    23    12    13   ar
    24    13    14   ar
    25    14    15   ar
    26    15    16   ar
    27    21    22   ar
    28    22    23   ar
    29    23    18   ar
    30    16     1    1
    31     9     3    1
    32    16    11   ar
    33     7    17    1
@<TRIPOS>MOLECULE
*****
 30 33 0 0 0
SMALL
GASTEIGER

@<TRIPOS>ATOM
      1 C         140.2179  142.1837  161.6295 C.2     1  UNL1        0.0020
      2 C         141.6690  141.8324  161.7749 C.2     1  UNL1        0.0129
      3 C         142.4127  142.2176  163.0193 C.3     1  UNL1        0.1529
      4 C         143.0613  142.6487  164.3013 C.3     1  UNL1        0.0458
      5 C         144.4807  142.4503  164.7442 C.3     1  UNL1        0.0210
      6 C         145.6019  141.7719  164.0145 C.3     1  UNL1        0.0687
      7 N         145.5808  141.1243  162.6617 N.3     1  UNL1       -0.2973
      8 C         144.4332  140.9952  161.7044 C.3     1  UNL1        0.0725
      9 C         143.0233  141.4818  161.8636 C.3     1  UNL1        0.0614
     10 O         141.7055  142.9541  164.1182 O.3     1  UNL1       -0.4785
     11 C         140.2545  143.3053  163.9726 C.ar    1  UNL1        0.1386
     12 C         139.5472  144.0418  165.0715 C.ar    1  UNL1        0.0369
     13 C         138.0963  144.3930  164.9260 C.ar    1  UNL1        0.0031
     14 C         137.3525  144.0079  163.6816 C.ar    1  UNL1        0.0002
     15 C         138.0597  143.2714  162.5828 C.ar    1  UNL1        0.0030
     16 C         139.5108  142.9201  162.7283 C.ar    1  UNL1        0.0338
     17 H         145.8797  140.1643  162.8333 H       1  UNL1        0.1232
     18 C         137.9866  141.0282  157.8964 C.ar    1  UNL1        0.0536
     19 C         138.0373  140.0854  159.0620 C.ar    1  UNL1        0.0045
     20 C         138.7810  140.4706  160.3063 C.ar    1  UNL1        0.0001
     21 C         139.4742  141.7985  160.3851 C.ar    1  UNL1       -0.0001
     22 C         139.4235  142.7413  159.2194 C.ar    1  UNL1        0.0001
     23 C         138.6797  142.3561  157.9751 C.ar    1  UNL1        0.0045
     24 N         137.9427  139.8821  155.5651 N.am    1  UNL1       -0.2761
     25 C         137.2428  140.6430  156.6519 C.2     1  UNL1        0.2490
     26 O         135.7992  141.0187  156.4946 O.2     1  UNL1       -0.2699
     27 C         136.5647  138.1416  154.2153 C.3     1  UNL1        0.0233
     28 C         137.1988  139.4970  154.3208 C.3     1  UNL1        0.0938
     29 C         139.3863  139.5065  155.7226 C.3     1  UNL1        0.0938
     30 C         139.7554  138.1522  156.2516 C.3     1  UNL1        0.0233
@<TRIPOS>BOND
     1    27    28    1
     2    28    24    1
     3    24    29    1
     4    29    30    1
     5    24    25   am
     6    25    26    2
     7    25    18    1
     8    18    19   ar
     9    19    20   ar
    10    20    21   ar
    11    21     1    1
    12     1     2    2
    13     2     3    1
    14     3     4    1
    15     4     5    1
    16     5     6    1
    17     6     7    1
    18     7     8    1
    19     8     9    1
    20     3    10    1
    21    10    11    1
    22    11    12   ar
    23    12    13   ar
    24    13    14   ar
    25    14    15   ar
    26    15    16   ar
    27    21    22   ar
    28    22    23   ar
    29    23    18   ar
    30    16     1    1
    31     9     3    1
    32    16    11   ar
    33     7    17    1
@<TRIPOS>MOLECULE
*****
 30 33 0 0 0
SMALL
GASTEIGER

@<TRIPOS>ATOM
      1 C         140.1787  141.7872  162.6583 C.2     1  UNL1        0.0020
      2 C         140.4814  142.9113  161.7123 C.2     1  UNL1        0.0129
      3 C         139.9135  142.8966  160.3241 C.3     1  UNL1        0.1529
      4 C         139.2966  142.7843  158.9613 C.3     1  UNL1        0.0458
      5 C         139.4069  143.7320  157.8038 C.3     1  UNL1        0.0210
      6 C         140.1612  145.0259  157.7232 C.3     1  UNL1        0.0687
      7 N         140.9917  145.6919  158.7800 N.3     1  UNL1       -0.2973
      8 C         141.2728  145.2283  160.1786 C.3     1  UNL1        0.0725
      9 C         140.7929  143.9842  160.8657 C.3     1  UNL1        0.0614
     10 O         139.0430  141.7579  159.8818 O.3     1  UNL1       -0.4785
     11 C         138.7404  140.6339  160.8278 C.ar    1  UNL1        0.1386
     12 C         137.8699  139.4951  160.3856 C.ar    1  UNL1        0.0369
     13 C         137.5673  138.3711  161.3316 C.ar    1  UNL1        0.0031
     14 C         138.1351  138.3858  162.7199 C.ar    1  UNL1        0.0002
     15 C         139.0055  139.5245  163.1621 C.ar    1  UNL1        0.0030
     16 C         139.3082  140.6486  162.2161 C.ar    1  UNL1        0.0338
     17 H         140.5673  146.6121  158.8963 H       1  UNL1        0.1232
     18 C         141.8822  141.8313  166.8232 C.ar    1  UNL1        0.0536
     19 C         140.6420  142.6155  166.5119 C.ar    1  UNL1        0.0045
     20 C         140.0741  142.6008  165.1236 C.ar    1  UNL1        0.0001
     21 C         140.7465  141.8019  164.0466 C.ar    1  UNL1       -0.0001
     22 C         141.9868  141.0178  164.3580 C.ar    1  UNL1        0.0001
     23 C         142.5546  141.0325  165.7463 C.ar    1  UNL1        0.0045
     24 N         141.8455  140.9820  169.2783 N.am    1  UNL1       -0.2761
     25 C         142.4501  141.8460  168.2115 C.2     1  UNL1        0.2490
     26 O         143.6224  142.7247  168.5330 O.2     1  UNL1       -0.2699
     27 C         143.3576  139.9157  171.1022 C.3     1  UNL1        0.0233
     28 C         142.4134  140.9968  170.6666 C.3     1  UNL1        0.0938
     29 C         140.6731  140.1033  168.9568 C.3     1  UNL1        0.0938
     30 C         139.3123  140.4446  169.4876 C.3     1  UNL1        0.0233
@<TRIPOS>BOND
     1    27    28    1
     2    28    24    1
     3    24    29    1
     4    29    30    1
     5    24    25   am
     6    25    26    2
     7    25    18    1
     8    18    19   ar
     9    19    20   ar
    10    20    21   ar
    11    21     1    1
    12     1     2    2
    13     2     3    1
    14     3     4    1
    15     4     5    1
    16     5     6    1
    17     6     7    1
    18     7     8    1
    19     8     9    1
    20     3    10    1
    21    10    11    1
    22    11    12   ar
    23    12    13   ar
    24    13    14   ar
    25    14    15   ar
    26    15    16   ar
    27    21    22   ar
    28    22    23   ar
    29    23    18   ar
    30    16     1    1
    31     9     3    1
    32    16    11   ar
    33     7    17    1
@<TRIPOS>MOLECULE
*****
 30 33 0 0 0
SMALL
GASTEIGER

@<TRIPOS>ATOM
      1 C         141.1505  141.2154  164.7595 C.2     1  UNL1        0.0020
      2 C         141.5906  140.8454  166.1449 C.2     1  UNL1        0.0129
      3 C         141.1728  141.6869  167.3142 C.3     1  UNL1        0.1529
      4 C         140.7002  142.5944  168.4112 C.3     1  UNL1        0.0458
      5 C         140.9654  142.4975  169.8845 C.3     1  UNL1        0.0210
      6 C         141.7685  141.4693  170.6245 C.3     1  UNL1        0.0687
      7 N         142.5050  140.2840  170.0742 N.3     1  UNL1       -0.2973
      8 C         142.6201  139.8342  168.6479 C.3     1  UNL1        0.0725
      9 C         142.0272  140.4586  167.4196 C.3     1  UNL1        0.0614
     10 O         140.3150  142.8984  167.0981 O.3     1  UNL1       -0.4785
     11 C         139.8750  143.2682  165.7127 C.ar    1  UNL1        0.1386
     12 C         139.0172  144.4797  165.4965 C.ar    1  UNL1        0.0369
     13 C         138.5772  144.8495  164.1110 C.ar    1  UNL1        0.0031
     14 C         138.9950  144.0080  162.9417 C.ar    1  UNL1        0.0002
     15 C         139.8527  142.7967  163.1578 C.ar    1  UNL1        0.0030
     16 C         140.2928  142.4267  164.5434 C.ar    1  UNL1        0.0338
     17 H         142.1029  139.4840  170.5628 H       1  UNL1        0.1232
     18 C         142.4037  138.6908  161.2515 C.ar    1  UNL1        0.0536
     19 C         143.1912  139.9150  161.6138 C.ar    1  UNL1        0.0045
     20 C         142.7734  140.7565  162.7832 C.ar    1  UNL1        0.0001
     21 C         141.5683  140.3739  163.5901 C.ar    1  UNL1       -0.0001
     22 C         140.7808  139.1496  163.2277 C.ar    1  UNL1        0.0001
     23 C         141.1986  138.3081  162.0584 C.ar    1  UNL1        0.0045
     24 N         142.2078  138.0820  158.7333 N.am    1  UNL1       -0.2761
     25 C         142.8215  137.8492  160.0821 C.2     1  UNL1        0.2490
     26 O         143.8529  136.7751  160.2616 O.2     1  UNL1       -0.2699
     27 C         143.0698  137.8951  156.2895 C.3     1  UNL1        0.0233
     28 C         142.6256  137.2404  157.5640 C.3     1  UNL1        0.0938
     29 C         141.1763  139.1561  158.5539 C.3     1  UNL1        0.0938
     30 C         139.7175  138.8103  158.6007 C.3     1  UNL1        0.0233
@<TRIPOS>BOND
     1    27    28    1
     2    28    24    1
     3    24    29    1
     4    29    30    1
     5    24    25   am
     6    25    26    2
     7    25    18    1
     8    18    19   ar
     9    19    20   ar
    10    20    21   ar
    11    21     1    1
    12     1     2    2
    13     2     3    1
    14     3     4    1
    15     4     5    1
    16     5     6    1
    17     6     7    1
    18     7     8    1
    19     8     9    1
    20     3    10    1
    21    10    11    1
    22    11    12   ar
    23    12    13   ar
    24    13    14   ar
    25    14    15   ar
    26    15    16   ar
    27    21    22   ar
    28    22    23   ar
    29    23    18   ar
    30    16     1    1
    31     9     3    1
    32    16    11   ar
    33     7    17    1
@<TRIPOS>MOLECULE
*****
 30 33 0 0 0
SMALL
GASTEIGER

@<TRIPOS>ATOM
      1 C         140.8917  141.4662  165.0296 C.2     1  UNL1        0.0020
      2 C         140.3541  140.9711  166.3395 C.2     1  UNL1        0.0129
      3 C         141.1263  141.2058  167.6039 C.3     1  UNL1        0.1529
      4 C         141.9761  141.4928  168.8063 C.3     1  UNL1        0.0458
      5 C         141.7195  141.1339  170.2400 C.3     1  UNL1        0.0210
      6 C         140.5499  140.3996  170.8253 C.3     1  UNL1        0.0687
      7 N         139.3479  139.8427  170.1217 N.3     1  UNL1       -0.2973
      8 C         139.0187  139.8826  168.6588 C.3     1  UNL1        0.0725
      9 C         139.8103  140.4893  167.5383 C.3     1  UNL1        0.0614
     10 O         142.4360  141.9357  167.5583 O.3     1  UNL1       -0.4785
     11 C         142.9735  142.4308  166.2484 C.ar    1  UNL1        0.1386
     12 C         144.2832  143.1607  166.2028 C.ar    1  UNL1        0.0369
     13 C         144.8207  143.6558  164.8929 C.ar    1  UNL1        0.0031
     14 C         144.0485  143.4211  163.6286 C.ar    1  UNL1        0.0002
     15 C         142.7389  142.6912  163.6741 C.ar    1  UNL1        0.0030
     16 C         142.2013  142.1961  164.9841 C.ar    1  UNL1        0.0338
     17 H         138.5541  140.2955  170.5747 H       1  UNL1        0.1232
     18 C         138.5751  140.7621  161.2365 C.ar    1  UNL1        0.0536
     19 C         139.6900  139.8337  161.6177 C.ar    1  UNL1        0.0045
     20 C         140.4622  140.0685  162.8820 C.ar    1  UNL1        0.0001
     21 C         140.1195  141.2315  163.7652 C.ar    1  UNL1       -0.0001
     22 C         139.0046  142.1598  163.3839 C.ar    1  UNL1        0.0001
     23 C         138.2325  141.9251  162.1196 C.ar    1  UNL1        0.0045
     24 N         138.1631  141.2764  158.7233 N.am    1  UNL1       -0.2761
     25 C         137.8030  140.5273  159.9720 C.2     1  UNL1        0.2490
     26 O         136.6708  139.5436  159.9565 O.2     1  UNL1       -0.2699
     27 C         137.1729  142.1683  156.4930 C.3     1  UNL1        0.0233
     28 C         137.3909  141.0415  157.4590 C.3     1  UNL1        0.0938
     29 C         139.2953  142.2601  158.7390 C.3     1  UNL1        0.0938
     30 C         140.6939  141.7984  158.4546 C.3     1  UNL1        0.0233
@<TRIPOS>BOND
     1    27    28    1
     2    28    24    1
     3    24    29    1
     4    29    30    1
     5    24    25   am
     6    25    26    2
     7    25    18    1
     8    18    19   ar
     9    19    20   ar
    10    20    21   ar
    11    21     1    1
    12     1     2    2
    13     2     3    1
    14     3     4    1
    15     4     5    1
    16     5     6    1
    17     6     7    1
    18     7     8    1
    19     8     9    1
    20     3    10    1
    21    10    11    1
    22    11    12   ar
    23    12    13   ar
    24    13    14   ar
    25    14    15   ar
    26    15    16   ar
    27    21    22   ar
    28    22    23   ar
    29    23    18   ar
    30    16     1    1
    31     9     3    1
    32    16    11   ar
    33     7    17    1
@<TRIPOS>MOLECULE
*****
 30 33 0 0 0
SMALL
GASTEIGER

@<TRIPOS>ATOM
      1 C         140.4452  142.1727  161.4304 C.2     1  UNL1        0.0020
      2 C         141.8789  141.8047  161.6736 C.2     1  UNL1        0.0129
      3 C         142.5498  142.2075  162.9533 C.3     1  UNL1        0.1529
      4 C         143.1241  142.6583  164.2637 C.3     1  UNL1        0.0458
      5 C         144.5101  142.4504  164.7984 C.3     1  UNL1        0.0210
      6 C         145.6639  141.7403  164.1549 C.3     1  UNL1        0.0687
      7 N         145.7170  141.0627  162.8176 N.3     1  UNL1       -0.2973
      8 C         144.6292  140.9280  161.7937 C.3     1  UNL1        0.0725
      9 C         143.2196  141.4375  161.8541 C.3     1  UNL1        0.0614
     10 O         141.7871  142.9783  163.9897 O.3     1  UNL1       -0.4785
     11 C         140.3534  143.3462  163.7465 C.ar    1  UNL1        0.1386
     12 C         139.5906  144.1170  164.7829 C.ar    1  UNL1        0.0369
     13 C         138.1570  144.4849  164.5396 C.ar    1  UNL1        0.0031
     14 C         137.4861  144.0821  163.2599 C.ar    1  UNL1        0.0002
     15 C         138.2488  143.3114  162.2235 C.ar    1  UNL1        0.0030
     16 C         139.6825  142.9434  162.4668 C.ar    1  UNL1        0.0338
     17 H         145.9900  140.1028  163.0282 H       1  UNL1        0.1232
     18 C         138.4324  140.9643  157.5913 C.ar    1  UNL1        0.0536
     19 C         139.5909  141.9168  157.5632 C.ar    1  UNL1        0.0045
     20 C         140.2618  142.3196  158.8429 C.ar    1  UNL1        0.0001
     21 C         139.7743  141.7699  160.1507 C.ar    1  UNL1       -0.0001
     22 C         138.6158  140.8174  160.1787 C.ar    1  UNL1        0.0001
     23 C         137.9449  140.4147  158.8990 C.ar    1  UNL1        0.0045
     24 N         136.9042  141.5456  155.5722 N.am    1  UNL1       -0.2761
     25 C         137.7614  140.5615  156.3115 C.2     1  UNL1        0.2490
     26 O         137.9478  139.1747  155.7713 O.2     1  UNL1       -0.2699
     27 C         134.9021  140.4524  154.3286 C.3     1  UNL1        0.0233
     28 C         136.2334  141.1428  154.2924 C.3     1  UNL1        0.0938
     29 C         136.7179  142.9325  156.1124 C.3     1  UNL1        0.0938
     30 C         137.3558  144.0995  155.4188 C.3     1  UNL1        0.0233
@<TRIPOS>BOND
     1    27    28    1
     2    28    24    1
     3    24    29    1
     4    29    30    1
     5    24    25   am
     6    25    26    2
     7    25    18    1
     8    18    19   ar
     9    19    20   ar
    10    20    21   ar
    11    21     1    1
    12     1     2    2
    13     2     3    1
    14     3     4    1
    15     4     5    1
    16     5     6    1
    17     6     7    1
    18     7     8    1
    19     8     9    1
    20     3    10    1
    21    10    11    1
    22    11    12   ar
    23    12    13   ar
    24    13    14   ar
    25    14    15   ar
    26    15    16   ar
    27    21    22   ar
    28    22    23   ar
    29    23    18   ar
    30    16     1    1
    31     9     3    1
    32    16    11   ar
    33     7    17    1
@<TRIPOS>MOLECULE
*****
 30 33 0 0 0
SMALL
GASTEIGER

@<TRIPOS>ATOM
      1 C         140.7287  140.0785  160.5505 C.2     1  UNL1        0.0020
      2 C         140.5096  141.5571  160.4250 C.2     1  UNL1        0.0129
      3 C         140.1900  142.3737  161.6420 C.3     1  UNL1        0.1529
      4 C         139.8764  143.0957  162.9189 C.3     1  UNL1        0.0458
      5 C         139.6088  144.5572  163.1255 C.3     1  UNL1        0.0210
      6 C         139.5888  145.6574  162.1062 C.3     1  UNL1        0.0687
      7 N         139.8313  145.5682  160.6286 N.3     1  UNL1       -0.2973
      8 C         140.1538  144.3565  159.8054 C.3     1  UNL1        0.0725
      9 C         140.3135  142.9348  160.2564 C.3     1  UNL1        0.0614
     10 O         140.0895  141.7118  162.9843 O.3     1  UNL1       -0.4785
     11 C         140.3087  140.2332  163.1096 C.ar    1  UNL1        0.1386
     12 C         140.2082  139.5712  164.4519 C.ar    1  UNL1        0.0369
     13 C         140.4273  138.0926  164.5773 C.ar    1  UNL1        0.0031
     14 C         140.7469  137.2760  163.3603 C.ar    1  UNL1        0.0002
     15 C         140.8474  137.9379  162.0181 C.ar    1  UNL1        0.0030
     16 C         140.6282  139.4166  161.8927 C.ar    1  UNL1        0.0338
     17 H         140.6079  146.2071  160.4581 H       1  UNL1        0.1232
     18 C         141.6875  137.6285  156.8996 C.ar    1  UNL1        0.0536
     19 C         142.7866  138.3272  157.6439 C.ar    1  UNL1        0.0045
     20 C         142.4670  139.1438  158.8608 C.ar    1  UNL1        0.0001
     21 C         141.0483  139.2618  159.3335 C.ar    1  UNL1       -0.0001
     22 C         139.9492  138.5631  158.5892 C.ar    1  UNL1        0.0001
     23 C         140.2688  137.7465  157.3723 C.ar    1  UNL1        0.0045
     24 N         142.6476  135.4636  155.8312 N.am    1  UNL1       -0.2761
     25 C         142.0071  136.8118  155.6827 C.2     1  UNL1        0.2490
     26 O         141.6863  137.3435  154.3173 O.2     1  UNL1       -0.2699
     27 C         141.9709  133.6528  154.0952 C.3     1  UNL1        0.0233
     28 C         142.9672  134.6470  154.6142 C.3     1  UNL1        0.0938
     29 C         142.9684  134.9320  157.1966 C.3     1  UNL1        0.0938
     30 C         143.9866  133.8422  157.3570 C.3     1  UNL1        0.0233
@<TRIPOS>BOND
     1    27    28    1
     2    28    24    1
     3    24    29    1
     4    29    30    1
     5    24    25   am
     6    25    26    2
     7    25    18    1
     8    18    19   ar
     9    19    20   ar
    10    20    21   ar
    11    21     1    1
    12     1     2    2
    13     2     3    1
    14     3     4    1
    15     4     5    1
    16     5     6    1
    17     6     7    1
    18     7     8    1
    19     8     9    1
    20     3    10    1
    21    10    11    1
    22    11    12   ar
    23    12    13   ar
    24    13    14   ar
    25    14    15   ar
    26    15    16   ar
    27    21    22   ar
    28    22    23   ar
    29    23    18   ar
    30    16     1    1
    31     9     3    1
    32    16    11   ar
    33     7    17    1
