@<TRIPOS>MOLECULE
*****
 36 41 0 0 0
SMALL
GASTEIGER

@<TRIPOS>ATOM
      1 C         144.1375  140.4804  155.8376 C.3     1  UNL1        0.0298
      2 C         143.6445  139.7567  157.0556 C.3     1  UNL1        0.1343
      3 C         143.5539  140.4748  158.3694 C.ar    1  UNL1        0.1615
      4 N         143.8773  141.8845  158.7670 N.ar    1  UNL1       -0.1316
      5 N         143.5842  142.0320  160.2307 N.ar    1  UNL1       -0.1274
      6 C         143.0797  140.7135  160.7376 C.ar    1  UNL1        0.1846
      7 N         143.0609  139.7511  159.5872 N.ar    1  UNL1       -0.2944
      8 C         142.6586  138.3092  159.4913 C.3     1  UNL1        0.1302
      9 C         142.7493  137.5911  158.1775 C.3     1  UNL1        0.1186
     10 N         143.2422  138.3148  156.9597 N.am    1  UNL1       -0.2688
     11 C         143.3329  137.5966  155.6459 C.2     1  UNL1        0.2493
     12 O         143.8258  138.3203  154.4280 O.2     1  UNL1       -0.2699
     13 C         142.9306  136.1547  155.5499 C.ar    1  UNL1        0.0536
     14 C         143.9208  135.0765  155.8771 C.ar    1  UNL1        0.0045
     15 C         143.5184  133.6346  155.7811 C.ar    1  UNL1        0.0006
     16 C         142.1261  133.2710  155.3581 C.ar    1  UNL1        0.0060
     17 C         141.1359  134.3493  155.0310 C.ar    1  UNL1        0.0006
     18 C         141.5382  135.7912  155.1269 C.ar    1  UNL1        0.0045
     19 C         141.7237  131.8292  155.2622 C.ar    1  UNL1        0.0295
     20 C         140.4593  131.3055  154.6481 C.ar    1  UNL1        0.0070
     21 C         140.4693  129.8106  154.7699 C.ar    1  UNL1        0.0075
     22 C         141.7399  129.4102  155.4593 C.ar    1  UNL1        0.0354
     23 S         142.5152  130.6578  155.7635 S.2     1  UNL1       -0.0864
     24 C         142.6665  140.4106  162.1474 C.ar    1  UNL1        0.1241
     25 C         143.5145  140.5871  163.3720 C.ar    1  UNL1        0.0591
     26 S         142.7048  140.1636  164.5616 S.2     1  UNL1       -0.0658
     27 C         141.3563  139.7254  164.0722 C.ar    1  UNL1        0.1130
     28 N         141.3326  139.8781  162.5801 N.ar    1  UNL1       -0.2352
     29 C         140.2293  139.2228  164.9250 C.ar    1  UNL1        0.0514
     30 C         139.7469  140.0388  166.0875 C.ar    1  UNL1        0.0066
     31 C         138.6199  139.5362  166.9404 C.ar    1  UNL1        0.0298
     32 C         137.9754  138.2175  166.6307 C.ar    1  UNL1        0.1424
     33 F         136.8485  137.7149  167.4836 F       1  UNL1       -0.2041
     34 C         138.4579  137.4015  165.4683 C.ar    1  UNL1        0.0593
     35 C         139.5849  137.9041  164.6155 C.ar    1  UNL1        0.1443
     36 F         140.0674  137.0881  163.4530 F       1  UNL1       -0.2040
@<TRIPOS>BOND
     1     2     1    1
     2     2     3    1
     3     3     4   ar
     4     4     5   ar
     5     5     6   ar
     6     6    24    1
     7    24    25   ar
     8    25    26   ar
     9    26    27   ar
    10    27    29    1
    11    29    30   ar
    12    30    31   ar
    13    31    32   ar
    14    32    33    1
    15    32    34   ar
    16    34    35   ar
    17    35    36    1
    18    27    28   ar
    19     6     7   ar
    20     7     8    1
    21     8     9    1
    22     9    10    1
    23    10    11   am
    24    11    12    2
    25    11    13    1
    26    13    14   ar
    27    14    15   ar
    28    15    16   ar
    29    16    19    1
    30    19    20   ar
    31    20    21   ar
    32    21    22   ar
    33    22    23   ar
    34    16    17   ar
    35    17    18   ar
    36    10     2    1
    37    18    13   ar
    38     7     3   ar
    39    23    19   ar
    40    28    24   ar
    41    35    29   ar
@<TRIPOS>MOLECULE
*****
 36 41 0 0 0
SMALL
GASTEIGER

@<TRIPOS>ATOM
      1 C         143.8757  140.3105  156.0283 C.3     1  UNL1        0.0298
      2 C         143.4246  139.5489  157.2393 C.3     1  UNL1        0.1343
      3 C         143.3067  140.2454  158.5626 C.ar    1  UNL1        0.1615
      4 N         143.5646  141.6639  158.9765 N.ar    1  UNL1       -0.1316
      5 N         143.2727  141.7789  160.4434 N.ar    1  UNL1       -0.1274
      6 C         142.8345  140.4315  160.9359 C.ar    1  UNL1        0.1846
      7 N         142.8556  139.4838  159.7735 N.ar    1  UNL1       -0.2944
      8 C         142.5222  138.0256  159.6612 C.3     1  UNL1        0.1302
      9 C         142.6400  137.3291  158.3380 C.3     1  UNL1        0.1186
     10 N         143.0911  138.0907  157.1271 N.am    1  UNL1       -0.2688
     11 C         143.2090  137.3941  155.8038 C.2     1  UNL1        0.2493
     12 O         143.6601  138.1557  154.5928 O.2     1  UNL1       -0.2699
     13 C         142.8756  135.9359  155.6915 C.ar    1  UNL1        0.0536
     14 C         141.5288  135.5113  155.1855 C.ar    1  UNL1        0.0045
     15 C         141.1955  134.0531  155.0732 C.ar    1  UNL1        0.0006
     16 C         142.2088  133.0196  155.4669 C.ar    1  UNL1        0.0060
     17 C         143.5556  133.4443  155.9728 C.ar    1  UNL1        0.0006
     18 C         143.8890  134.9024  156.0851 C.ar    1  UNL1        0.0045
     19 C         141.8756  131.5614  155.3546 C.ar    1  UNL1        0.0295
     20 C         140.6230  130.9861  154.7630 C.ar    1  UNL1        0.0070
     21 C         140.7098  129.4916  154.8571 C.ar    1  UNL1        0.0075
     22 C         142.0161  129.1432  155.5069 C.ar    1  UNL1        0.0354
     23 S         142.7365  130.4224  155.8144 S.2     1  UNL1       -0.0864
     24 C         142.4439  140.0917  162.3437 C.ar    1  UNL1        0.1241
     25 C         143.3505  140.1078  163.5386 C.ar    1  UNL1        0.0591
     26 S         142.5449  139.7021  164.7371 S.2     1  UNL1       -0.0658
     27 C         141.1405  139.4352  164.2830 C.ar    1  UNL1        0.1130
     28 N         141.0780  139.6760  162.8038 N.ar    1  UNL1       -0.2352
     29 C         139.9989  139.0034  165.1550 C.ar    1  UNL1        0.0514
     30 C         139.3721  137.6550  164.9568 C.ar    1  UNL1        0.0066
     31 C         138.2305  137.2232  165.8288 C.ar    1  UNL1        0.0298
     32 C         137.7158  138.1397  166.8989 C.ar    1  UNL1        0.1424
     33 F         136.5742  137.7079  167.7709 F       1  UNL1       -0.2041
     34 C         138.3425  139.4880  167.0970 C.ar    1  UNL1        0.0593
     35 C         139.4841  139.9198  166.2251 C.ar    1  UNL1        0.1443
     36 F         140.1109  141.2681  166.4232 F       1  UNL1       -0.2040
@<TRIPOS>BOND
     1     2     1    1
     2     2     3    1
     3     3     4   ar
     4     4     5   ar
     5     5     6   ar
     6     6    24    1
     7    24    25   ar
     8    25    26   ar
     9    26    27   ar
    10    27    29    1
    11    29    30   ar
    12    30    31   ar
    13    31    32   ar
    14    32    33    1
    15    32    34   ar
    16    34    35   ar
    17    35    36    1
    18    27    28   ar
    19     6     7   ar
    20     7     8    1
    21     8     9    1
    22     9    10    1
    23    10    11   am
    24    11    12    2
    25    11    13    1
    26    13    14   ar
    27    14    15   ar
    28    15    16   ar
    29    16    19    1
    30    19    20   ar
    31    20    21   ar
    32    21    22   ar
    33    22    23   ar
    34    16    17   ar
    35    17    18   ar
    36    10     2    1
    37    18    13   ar
    38     7     3   ar
    39    23    19   ar
    40    28    24   ar
    41    35    29   ar
@<TRIPOS>MOLECULE
*****
 36 41 0 0 0
SMALL
GASTEIGER

@<TRIPOS>ATOM
      1 C         138.5546  142.5502  158.0578 C.3     1  UNL1        0.0298
      2 C         138.9084  141.5499  159.1181 C.3     1  UNL1        0.1343
      3 C         138.6123  141.8469  160.5583 C.ar    1  UNL1        0.1615
      4 N         137.9836  143.0316  161.2300 N.ar    1  UNL1       -0.1316
      5 N         137.9488  142.7634  162.7054 N.ar    1  UNL1       -0.1274
      6 C         138.5560  141.4130  162.9456 C.ar    1  UNL1        0.1846
      7 N         138.9661  140.8466  161.6185 N.ar    1  UNL1       -0.2944
      8 C         139.6159  139.5491  161.2386 C.3     1  UNL1        0.1302
      9 C         139.9120  139.2521  159.7984 C.3     1  UNL1        0.1186
     10 N         139.5582  140.2524  158.7383 N.am    1  UNL1       -0.2688
     11 C         139.8543  139.9553  157.2980 C.2     1  UNL1        0.2493
     12 O         139.5006  140.9556  156.2378 O.2     1  UNL1       -0.2699
     13 C         140.5042  138.6578  156.9181 C.ar    1  UNL1        0.0536
     14 C         139.7436  137.6452  156.1144 C.ar    1  UNL1        0.0045
     15 C         140.3935  136.3477  155.7344 C.ar    1  UNL1        0.0006
     16 C         141.8039  136.0630  156.1582 C.ar    1  UNL1        0.0060
     17 C         142.5645  137.0757  156.9620 C.ar    1  UNL1        0.0006
     18 C         141.9146  138.3731  157.3419 C.ar    1  UNL1        0.0045
     19 C         142.4538  134.7656  155.7784 C.ar    1  UNL1        0.0295
     20 C         142.0798  133.9003  154.6116 C.ar    1  UNL1        0.0070
     21 C         142.9868  132.7056  154.6108 C.ar    1  UNL1        0.0075
     22 C         143.9215  132.8325  155.7772 C.ar    1  UNL1        0.0354
     23 S         143.5920  134.1056  156.4988 S.2     1  UNL1       -0.0864
     24 C         138.7237  140.7461  164.2786 C.ar    1  UNL1        0.1241
     25 C         138.0211  139.5026  164.7371 C.ar    1  UNL1        0.0591
     26 S         138.4866  139.1937  166.1291 S.2     1  UNL1       -0.0658
     27 C         139.4769  140.2461  166.5311 C.ar    1  UNL1        0.1130
     28 N         139.6234  141.2056  165.3874 N.ar    1  UNL1       -0.2352
     29 C         140.1947  140.3253  167.8458 C.ar    1  UNL1        0.0514
     30 C         139.4129  140.4089  169.1233 C.ar    1  UNL1        0.0066
     31 C         140.1306  140.4881  170.4380 C.ar    1  UNL1        0.0298
     32 C         141.6302  140.4835  170.4753 C.ar    1  UNL1        0.1424
     33 F         142.3480  140.5627  171.7901 F       1  UNL1       -0.2041
     34 C         142.4119  140.3999  169.1979 C.ar    1  UNL1        0.0593
     35 C         141.6942  140.3208  167.8831 C.ar    1  UNL1        0.1443
     36 F         142.4760  140.2371  166.6057 F       1  UNL1       -0.2040
@<TRIPOS>BOND
     1     2     1    1
     2     2     3    1
     3     3     4   ar
     4     4     5   ar
     5     5     6   ar
     6     6    24    1
     7    24    25   ar
     8    25    26   ar
     9    26    27   ar
    10    27    29    1
    11    29    30   ar
    12    30    31   ar
    13    31    32   ar
    14    32    33    1
    15    32    34   ar
    16    34    35   ar
    17    35    36    1
    18    27    28   ar
    19     6     7   ar
    20     7     8    1
    21     8     9    1
    22     9    10    1
    23    10    11   am
    24    11    12    2
    25    11    13    1
    26    13    14   ar
    27    14    15   ar
    28    15    16   ar
    29    16    19    1
    30    19    20   ar
    31    20    21   ar
    32    21    22   ar
    33    22    23   ar
    34    16    17   ar
    35    17    18   ar
    36    10     2    1
    37    18    13   ar
    38     7     3   ar
    39    23    19   ar
    40    28    24   ar
    41    35    29   ar
@<TRIPOS>MOLECULE
*****
 36 41 0 0 0
SMALL
GASTEIGER

@<TRIPOS>ATOM
      1 C         137.6698  138.2036  161.2895 C.3     1  UNL1        0.0298
      2 C         138.4167  139.5043  161.2717 C.3     1  UNL1        0.1343
      3 C         138.3872  140.3695  160.0467 C.ar    1  UNL1        0.1615
      4 N         137.7139  140.2033  158.7166 N.ar    1  UNL1       -0.1316
      5 N         138.0447  141.4014  157.8769 N.ar    1  UNL1       -0.1274
      6 C         138.9225  142.3080  158.6879 C.ar    1  UNL1        0.1846
      7 N         139.1342  141.6702  160.0290 N.ar    1  UNL1       -0.2944
      8 C         139.9105  142.1057  161.2362 C.3     1  UNL1        0.1302
      9 C         139.9400  141.2406  162.4612 C.3     1  UNL1        0.1186
     10 N         139.1931  139.9400  162.4790 N.am    1  UNL1       -0.2688
     11 C         139.2226  139.0748  163.7041 C.2     1  UNL1        0.2493
     12 O         138.4757  137.7741  163.7218 O.2     1  UNL1       -0.2699
     13 C         139.9990  139.5103  164.9113 C.ar    1  UNL1        0.0536
     14 C         141.4279  139.0854  165.0775 C.ar    1  UNL1        0.0045
     15 C         142.2043  139.5211  166.2849 C.ar    1  UNL1        0.0006
     16 C         141.5518  140.3815  167.3259 C.ar    1  UNL1        0.0060
     17 C         140.1228  140.8064  167.1596 C.ar    1  UNL1        0.0006
     18 C         139.3464  140.3708  165.9524 C.ar    1  UNL1        0.0045
     19 C         142.3280  140.8171  168.5332 C.ar    1  UNL1        0.0295
     20 C         143.0645  142.1147  168.6870 C.ar    1  UNL1        0.0070
     21 C         143.6958  142.1311  170.0476 C.ar    1  UNL1        0.0075
     22 C         143.3494  140.8435  170.7347 C.ar    1  UNL1        0.0354
     23 S         142.5041  140.0314  169.7988 S.2     1  UNL1       -0.0864
     24 C         139.4890  143.6216  158.2370 C.ar    1  UNL1        0.1241
     25 C         140.4501  144.4781  159.0069 C.ar    1  UNL1        0.0591
     26 S         140.7490  145.6953  158.1828 S.2     1  UNL1       -0.0658
     27 C         139.9726  145.5910  156.9036 C.ar    1  UNL1        0.1130
     28 N         139.1939  144.3095  156.9371 N.ar    1  UNL1       -0.2352
     29 C         139.9746  146.5925  155.7869 C.ar    1  UNL1        0.0514
     30 C         140.7239  146.3020  154.5202 C.ar    1  UNL1        0.0066
     31 C         140.7259  147.3035  153.4035 C.ar    1  UNL1        0.0298
     32 C         139.9787  148.5955  153.5535 C.ar    1  UNL1        0.1424
     33 F         139.9807  149.5971  152.4368 F       1  UNL1       -0.2041
     34 C         139.2295  148.8860  154.8201 C.ar    1  UNL1        0.0593
     35 C         139.2275  147.8845  155.9368 C.ar    1  UNL1        0.1443
     36 F         138.4782  148.1750  157.2034 F       1  UNL1       -0.2040
@<TRIPOS>BOND
     1     2     1    1
     2     2     3    1
     3     3     4   ar
     4     4     5   ar
     5     5     6   ar
     6     6    24    1
     7    24    25   ar
     8    25    26   ar
     9    26    27   ar
    10    27    29    1
    11    29    30   ar
    12    30    31   ar
    13    31    32   ar
    14    32    33    1
    15    32    34   ar
    16    34    35   ar
    17    35    36    1
    18    27    28   ar
    19     6     7   ar
    20     7     8    1
    21     8     9    1
    22     9    10    1
    23    10    11   am
    24    11    12    2
    25    11    13    1
    26    13    14   ar
    27    14    15   ar
    28    15    16   ar
    29    16    19    1
    30    19    20   ar
    31    20    21   ar
    32    21    22   ar
    33    22    23   ar
    34    16    17   ar
    35    17    18   ar
    36    10     2    1
    37    18    13   ar
    38     7     3   ar
    39    23    19   ar
    40    28    24   ar
    41    35    29   ar
@<TRIPOS>MOLECULE
*****
 36 41 0 0 0
SMALL
GASTEIGER

@<TRIPOS>ATOM
      1 C         144.1323  142.3008  157.5607 C.3     1  UNL1        0.0298
      2 C         143.8299  141.2357  158.5727 C.3     1  UNL1        0.1343
      3 C         143.8914  141.5534  160.0374 C.ar    1  UNL1        0.1615
      4 N         144.2184  142.8164  160.7775 N.ar    1  UNL1       -0.1316
      5 N         144.1181  142.5318  162.2468 N.ar    1  UNL1       -0.1274
      6 C         143.7290  141.0929  162.4148 C.ar    1  UNL1        0.1846
      7 N         143.5889  140.4882  161.0492 N.ar    1  UNL1       -0.2944
      8 C         143.2249  139.1053  160.5964 C.3     1  UNL1        0.1302
      9 C         143.1634  138.7876  159.1318 C.3     1  UNL1        0.1186
     10 N         143.4659  139.8527  158.1199 N.am    1  UNL1       -0.2688
     11 C         143.4044  139.5349  156.6552 C.2     1  UNL1        0.2493
     12 O         143.7069  140.6001  155.6433 O.2     1  UNL1       -0.2699
     13 C         143.0404  138.1520  156.2024 C.ar    1  UNL1        0.0536
     14 C         141.6078  137.7082  156.2251 C.ar    1  UNL1        0.0045
     15 C         141.2439  136.3252  155.7722 C.ar    1  UNL1        0.0006
     16 C         142.3125  135.3861  155.2968 C.ar    1  UNL1        0.0060
     17 C         143.7452  135.8300  155.2741 C.ar    1  UNL1        0.0006
     18 C         144.1092  137.2129  155.7269 C.ar    1  UNL1        0.0045
     19 C         141.9487  134.0032  154.8440 C.ar    1  UNL1        0.0295
     20 C         141.6183  133.5936  153.4393 C.ar    1  UNL1        0.0070
     21 C         141.3168  132.1242  153.4437 C.ar    1  UNL1        0.0075
     22 C         141.4608  131.6257  154.8510 C.ar    1  UNL1        0.0354
     23 S         141.8513  132.7869  155.7165 S.2     1  UNL1       -0.0864
     24 C         143.5173  140.3833  163.7192 C.ar    1  UNL1        0.1241
     25 C         144.2157  139.1334  164.1666 C.ar    1  UNL1        0.0591
     26 S         143.6999  138.7767  165.5292 S.2     1  UNL1       -0.0658
     27 C         142.6828  139.8060  165.9240 C.ar    1  UNL1        0.1130
     28 N         142.5699  140.7990  164.8054 N.ar    1  UNL1       -0.2352
     29 C         141.9136  139.8370  167.2114 C.ar    1  UNL1        0.0514
     30 C         142.6001  139.5059  168.5034 C.ar    1  UNL1        0.0066
     31 C         141.8309  139.5369  169.7908 C.ar    1  UNL1        0.0298
     32 C         140.3752  139.8990  169.7862 C.ar    1  UNL1        0.1424
     33 F         139.6060  139.9300  171.0736 F       1  UNL1       -0.2041
     34 C         139.6888  140.2301  168.4943 C.ar    1  UNL1        0.0593
     35 C         140.4580  140.1991  167.2069 C.ar    1  UNL1        0.1443
     36 F         139.7715  140.5303  165.9149 F       1  UNL1       -0.2040
@<TRIPOS>BOND
     1     2     1    1
     2     2     3    1
     3     3     4   ar
     4     4     5   ar
     5     5     6   ar
     6     6    24    1
     7    24    25   ar
     8    25    26   ar
     9    26    27   ar
    10    27    29    1
    11    29    30   ar
    12    30    31   ar
    13    31    32   ar
    14    32    33    1
    15    32    34   ar
    16    34    35   ar
    17    35    36    1
    18    27    28   ar
    19     6     7   ar
    20     7     8    1
    21     8     9    1
    22     9    10    1
    23    10    11   am
    24    11    12    2
    25    11    13    1
    26    13    14   ar
    27    14    15   ar
    28    15    16   ar
    29    16    19    1
    30    19    20   ar
    31    20    21   ar
    32    21    22   ar
    33    22    23   ar
    34    16    17   ar
    35    17    18   ar
    36    10     2    1
    37    18    13   ar
    38     7     3   ar
    39    23    19   ar
    40    28    24   ar
    41    35    29   ar
@<TRIPOS>MOLECULE
*****
 36 41 0 0 0
SMALL
GASTEIGER

@<TRIPOS>ATOM
      1 C         141.3287  143.1989  156.0019 C.3     1  UNL1        0.0298
      2 C         140.9625  142.4320  157.2379 C.3     1  UNL1        0.1343
      3 C         140.4467  143.1572  158.4454 C.ar    1  UNL1        0.1615
      4 N         140.1945  144.6119  158.7107 N.ar    1  UNL1       -0.1316
      5 N         139.6724  144.7439  160.1107 N.ar    1  UNL1       -0.1274
      6 C         139.6020  143.3708  160.7106 C.ar    1  UNL1        0.1846
      7 N         140.0805  142.3902  159.6813 N.ar    1  UNL1       -0.2944
      8 C         140.2301  140.8980  159.7099 C.3     1  UNL1        0.1302
      9 C         140.7459  140.1728  158.5024 C.3     1  UNL1        0.1186
     10 N         141.1121  140.9397  157.2665 N.am    1  UNL1       -0.2688
     11 C         141.6279  140.2144  156.0590 C.2     1  UNL1        0.2493
     12 O         141.9941  140.9814  154.8230 O.2     1  UNL1       -0.2699
     13 C         141.7775  138.7222  156.0875 C.ar    1  UNL1        0.0536
     14 C         143.0656  138.1062  156.5473 C.ar    1  UNL1        0.0045
     15 C         143.2151  136.6139  156.5758 C.ar    1  UNL1        0.0006
     16 C         142.0767  135.7377  156.1445 C.ar    1  UNL1        0.0060
     17 C         140.7886  136.3537  155.6847 C.ar    1  UNL1        0.0006
     18 C         140.6390  137.8459  155.6562 C.ar    1  UNL1        0.0045
     19 C         142.2262  134.2454  156.1730 C.ar    1  UNL1        0.0295
     20 C         141.4859  133.2684  155.3086 C.ar    1  UNL1        0.0070
     21 C         141.9445  131.8874  155.6723 C.ar    1  UNL1        0.0075
     22 C         142.9683  132.0108  156.7616 C.ar    1  UNL1        0.0354
     23 S         143.1424  133.4682  157.0710 S.2     1  UNL1       -0.0864
     24 C         139.1350  143.0371  162.0964 C.ar    1  UNL1        0.1241
     25 C         137.7931  143.3695  162.6787 C.ar    1  UNL1        0.0591
     26 S         137.7567  142.8501  164.0854 S.2     1  UNL1       -0.0658
     27 C         139.0760  142.1967  164.3726 C.ar    1  UNL1        0.1130
     28 N         139.9278  142.3122  163.1433 N.ar    1  UNL1       -0.2352
     29 C         139.4737  141.5425  165.6626 C.ar    1  UNL1        0.0514
     30 C         140.4640  142.2119  166.5688 C.ar    1  UNL1        0.0066
     31 C         140.8617  141.5577  167.8588 C.ar    1  UNL1        0.0298
     32 C         140.2690  140.2342  168.2424 C.ar    1  UNL1        0.1424
     33 F         140.6667  139.5801  169.5324 F       1  UNL1       -0.2041
     34 C         139.2787  139.5649  167.3362 C.ar    1  UNL1        0.0593
     35 C         138.8810  140.2191  166.0463 C.ar    1  UNL1        0.1443
     36 F         137.8907  139.5497  165.1400 F       1  UNL1       -0.2040
@<TRIPOS>BOND
     1     2     1    1
     2     2     3    1
     3     3     4   ar
     4     4     5   ar
     5     5     6   ar
     6     6    24    1
     7    24    25   ar
     8    25    26   ar
     9    26    27   ar
    10    27    29    1
    11    29    30   ar
    12    30    31   ar
    13    31    32   ar
    14    32    33    1
    15    32    34   ar
    16    34    35   ar
    17    35    36    1
    18    27    28   ar
    19     6     7   ar
    20     7     8    1
    21     8     9    1
    22     9    10    1
    23    10    11   am
    24    11    12    2
    25    11    13    1
    26    13    14   ar
    27    14    15   ar
    28    15    16   ar
    29    16    19    1
    30    19    20   ar
    31    20    21   ar
    32    21    22   ar
    33    22    23   ar
    34    16    17   ar
    35    17    18   ar
    36    10     2    1
    37    18    13   ar
    38     7     3   ar
    39    23    19   ar
    40    28    24   ar
    41    35    29   ar
@<TRIPOS>MOLECULE
*****
 36 41 0 0 0
SMALL
GASTEIGER

@<TRIPOS>ATOM
      1 C         142.6969  137.3685  157.7366 C.3     1  UNL1        0.0298
      2 C         141.4473  138.1470  158.0240 C.3     1  UNL1        0.1343
      3 C         140.5504  138.5684  156.8979 C.ar    1  UNL1        0.1615
      4 N         140.6378  138.3631  155.4146 N.ar    1  UNL1       -0.1316
      5 N         139.4423  139.0147  154.7852 N.ar    1  UNL1       -0.1274
      6 C         138.6160  139.6227  155.8796 C.ar    1  UNL1        0.1846
      7 N         139.3009  139.3468  157.1853 N.ar    1  UNL1       -0.2944
      8 C         138.9482  139.7040  158.5988 C.3     1  UNL1        0.1302
      9 C         139.8450  139.2826  159.7249 C.3     1  UNL1        0.1186
     10 N         141.0945  138.5042  159.4375 N.am    1  UNL1       -0.2688
     11 C         141.9914  138.0828  160.5637 C.2     1  UNL1        0.2493
     12 O         143.2409  137.3043  160.2763 O.2     1  UNL1       -0.2699
     13 C         141.6386  138.4399  161.9772 C.ar    1  UNL1        0.0536
     14 C         140.8681  137.4719  162.8254 C.ar    1  UNL1        0.0045
     15 C         140.5154  137.8291  164.2389 C.ar    1  UNL1        0.0006
     16 C         140.9332  139.1542  164.8043 C.ar    1  UNL1        0.0060
     17 C         141.7037  140.1222  163.9560 C.ar    1  UNL1        0.0006
     18 C         142.0564  139.7651  162.5425 C.ar    1  UNL1        0.0045
     19 C         140.5805  139.5114  166.2178 C.ar    1  UNL1        0.0295
     20 C         141.5515  139.8421  167.3122 C.ar    1  UNL1        0.0070
     21 C         140.7659  140.1358  168.5558 C.ar    1  UNL1        0.0075
     22 C         139.3093  139.9865  168.2300 C.ar    1  UNL1        0.0354
     23 S         139.1948  139.6006  166.7850 S.2     1  UNL1       -0.0864
     24 C         137.3305  140.3745  155.6997 C.ar    1  UNL1        0.1241
     25 C         137.1940  141.7778  155.1879 C.ar    1  UNL1        0.0591
     26 S         135.7350  142.1256  155.1720 S.2     1  UNL1       -0.0658
     27 C         134.9697  140.9372  155.6741 C.ar    1  UNL1        0.1130
     28 N         135.9558  139.8550  156.0003 N.ar    1  UNL1       -0.2352
     29 C         133.4799  140.8469  155.8238 C.ar    1  UNL1        0.0514
     30 C         132.5843  141.5703  154.8621 C.ar    1  UNL1        0.0066
     31 C         131.0946  141.4800  155.0118 C.ar    1  UNL1        0.0298
     32 C         130.5004  140.6663  156.1231 C.ar    1  UNL1        0.1424
     33 F         129.0106  140.5760  156.2728 F       1  UNL1       -0.2041
     34 C         131.3960  139.9430  157.0847 C.ar    1  UNL1        0.0593
     35 C         132.8857  140.0333  156.9350 C.ar    1  UNL1        0.1443
     36 F         133.7813  139.3099  157.8967 F       1  UNL1       -0.2040
@<TRIPOS>BOND
     1     2     1    1
     2     2     3    1
     3     3     4   ar
     4     4     5   ar
     5     5     6   ar
     6     6    24    1
     7    24    25   ar
     8    25    26   ar
     9    26    27   ar
    10    27    29    1
    11    29    30   ar
    12    30    31   ar
    13    31    32   ar
    14    32    33    1
    15    32    34   ar
    16    34    35   ar
    17    35    36    1
    18    27    28   ar
    19     6     7   ar
    20     7     8    1
    21     8     9    1
    22     9    10    1
    23    10    11   am
    24    11    12    2
    25    11    13    1
    26    13    14   ar
    27    14    15   ar
    28    15    16   ar
    29    16    19    1
    30    19    20   ar
    31    20    21   ar
    32    21    22   ar
    33    22    23   ar
    34    16    17   ar
    35    17    18   ar
    36    10     2    1
    37    18    13   ar
    38     7     3   ar
    39    23    19   ar
    40    28    24   ar
    41    35    29   ar
@<TRIPOS>MOLECULE
*****
 36 41 0 0 0
SMALL
GASTEIGER

@<TRIPOS>ATOM
      1 C         138.2442  142.5119  158.5800 C.3     1  UNL1        0.0298
      2 C         139.1974  141.3794  158.8227 C.3     1  UNL1        0.1343
      3 C         139.7462  140.5997  157.6647 C.ar    1  UNL1        0.1615
      4 N         139.5309  140.7153  156.1848 N.ar    1  UNL1       -0.1316
      5 N         140.3511  139.6542  155.5128 N.ar    1  UNL1       -0.1274
      6 C         141.0733  138.8829  156.5775 C.ar    1  UNL1        0.1846
      7 N         140.6995  139.4672  157.9074 N.ar    1  UNL1       -0.2944
      8 C         141.1039  139.1145  159.3081 C.3     1  UNL1        0.1302
      9 C         140.5551  139.8941  160.4661 C.3     1  UNL1        0.1186
     10 N         139.6019  141.0265  160.2234 N.am    1  UNL1       -0.2688
     11 C         139.0531  141.8062  161.3815 C.2     1  UNL1        0.2493
     12 O         138.0999  142.9387  161.1387 O.2     1  UNL1       -0.2699
     13 C         139.4575  141.4535  162.7822 C.ar    1  UNL1        0.0536
     14 C         140.7415  141.9836  163.3481 C.ar    1  UNL1        0.0045
     15 C         141.1459  141.6308  164.7489 C.ar    1  UNL1        0.0006
     16 C         140.2664  140.7479  165.5836 C.ar    1  UNL1        0.0060
     17 C         138.9823  140.2177  165.0176 C.ar    1  UNL1        0.0006
     18 C         138.5779  140.5705  163.6169 C.ar    1  UNL1        0.0045
     19 C         140.6707  140.3950  166.9843 C.ar    1  UNL1        0.0295
     20 C         139.7567  140.3078  168.1704 C.ar    1  UNL1        0.0070
     21 C         140.5812  139.9263  169.3640 C.ar    1  UNL1        0.0075
     22 C         142.0049  139.7777  168.9155 C.ar    1  UNL1        0.0354
     23 S         142.0602  140.0674  167.4447 S.2     1  UNL1       -0.0864
     24 C         142.0056  137.7297  156.3518 C.ar    1  UNL1        0.1241
     25 C         143.3480  137.7984  155.6859 C.ar    1  UNL1        0.0591
     26 S         143.9312  136.4165  155.6750 S.2     1  UNL1       -0.0658
     27 C         142.9494  135.4937  156.3340 C.ar    1  UNL1        0.1130
     28 N         141.7593  136.3053  156.7523 N.ar    1  UNL1       -0.2352
     29 C         143.1265  134.0184  156.5388 C.ar    1  UNL1        0.0514
     30 C         144.2640  133.5082  157.3730 C.ar    1  UNL1        0.0066
     31 C         144.4411  132.0328  157.5779 C.ar    1  UNL1        0.0298
     32 C         143.4807  131.0676  156.9484 C.ar    1  UNL1        0.1424
     33 F         143.6578  129.5923  157.1532 F       1  UNL1       -0.2041
     34 C         142.3433  131.5778  156.1143 C.ar    1  UNL1        0.0593
     35 C         142.1662  133.0532  155.9095 C.ar    1  UNL1        0.1443
     36 F         141.0286  133.5633  155.0752 F       1  UNL1       -0.2040
@<TRIPOS>BOND
     1     2     1    1
     2     2     3    1
     3     3     4   ar
     4     4     5   ar
     5     5     6   ar
     6     6    24    1
     7    24    25   ar
     8    25    26   ar
     9    26    27   ar
    10    27    29    1
    11    29    30   ar
    12    30    31   ar
    13    31    32   ar
    14    32    33    1
    15    32    34   ar
    16    34    35   ar
    17    35    36    1
    18    27    28   ar
    19     6     7   ar
    20     7     8    1
    21     8     9    1
    22     9    10    1
    23    10    11   am
    24    11    12    2
    25    11    13    1
    26    13    14   ar
    27    14    15   ar
    28    15    16   ar
    29    16    19    1
    30    19    20   ar
    31    20    21   ar
    32    21    22   ar
    33    22    23   ar
    34    16    17   ar
    35    17    18   ar
    36    10     2    1
    37    18    13   ar
    38     7     3   ar
    39    23    19   ar
    40    28    24   ar
    41    35    29   ar
@<TRIPOS>MOLECULE
*****
 36 41 0 0 0
SMALL
GASTEIGER

@<TRIPOS>ATOM
      1 C         142.8274  138.8775  157.8098 C.3     1  UNL1        0.0298
      2 C         142.0258  139.6585  158.8086 C.3     1  UNL1        0.1343
      3 C         141.7296  139.0711  160.1566 C.ar    1  UNL1        0.1615
      4 N         142.0922  137.7557  160.7799 N.ar    1  UNL1       -0.1316
      5 N         141.5146  137.7239  162.1639 N.ar    1  UNL1       -0.1274
      6 C         140.7951  139.0194  162.3959 C.ar    1  UNL1        0.1846
      7 N         140.9280  139.8521  161.1553 N.ar    1  UNL1       -0.2944
      8 C         140.4226  141.2205  160.8061 C.3     1  UNL1        0.1302
      9 C         140.7189  141.8079  159.4581 C.3     1  UNL1        0.1186
     10 N         141.5204  141.0270  158.4594 N.am    1  UNL1       -0.2688
     11 C         141.8166  141.6145  157.1113 C.2     1  UNL1        0.2493
     12 O         142.6182  140.8335  156.1125 O.2     1  UNL1       -0.2699
     13 C         141.3113  142.9829  156.7620 C.ar    1  UNL1        0.0536
     14 C         142.0907  144.1973  157.1715 C.ar    1  UNL1        0.0045
     15 C         141.5852  145.5658  156.8222 C.ar    1  UNL1        0.0006
     16 C         140.3005  145.7197  156.0635 C.ar    1  UNL1        0.0060
     17 C         139.5211  144.5052  155.6540 C.ar    1  UNL1        0.0006
     18 C         140.0265  143.1368  156.0032 C.ar    1  UNL1        0.0045
     19 C         139.7951  147.0881  155.7141 C.ar    1  UNL1        0.0295
     20 C         138.9336  147.9578  156.5810 C.ar    1  UNL1        0.0070
     21 C         138.6685  149.2342  155.8391 C.ar    1  UNL1        0.0075
     22 C         139.3661  149.1534  154.5137 C.ar    1  UNL1        0.0354
     23 S         140.0624  147.8270  154.4364 S.2     1  UNL1       -0.0864
     24 C         140.0701  139.4132  163.6486 C.ar    1  UNL1        0.1241
     25 C         138.5943  139.2927  163.8881 C.ar    1  UNL1        0.0591
     26 S         138.3057  139.8016  165.2693 S.2     1  UNL1       -0.0658
     27 C         139.6032  140.2367  165.8835 C.ar    1  UNL1        0.1130
     28 N         140.6936  139.9966  164.8819 N.ar    1  UNL1       -0.2352
     29 C         139.7793  140.8110  167.2580 C.ar    1  UNL1        0.0514
     30 C         139.2837  140.0557  168.4555 C.ar    1  UNL1        0.0066
     31 C         139.4598  140.6300  169.8300 C.ar    1  UNL1        0.0298
     32 C         140.1315  141.9595  170.0069 C.ar    1  UNL1        0.1424
     33 F         140.3076  142.5338  171.3814 F       1  UNL1       -0.2041
     34 C         140.6271  142.7147  168.8094 C.ar    1  UNL1        0.0593
     35 C         140.4510  142.1404  167.4349 C.ar    1  UNL1        0.1443
     36 F         140.9466  142.8957  166.2374 F       1  UNL1       -0.2040
@<TRIPOS>BOND
     1     2     1    1
     2     2     3    1
     3     3     4   ar
     4     4     5   ar
     5     5     6   ar
     6     6    24    1
     7    24    25   ar
     8    25    26   ar
     9    26    27   ar
    10    27    29    1
    11    29    30   ar
    12    30    31   ar
    13    31    32   ar
    14    32    33    1
    15    32    34   ar
    16    34    35   ar
    17    35    36    1
    18    27    28   ar
    19     6     7   ar
    20     7     8    1
    21     8     9    1
    22     9    10    1
    23    10    11   am
    24    11    12    2
    25    11    13    1
    26    13    14   ar
    27    14    15   ar
    28    15    16   ar
    29    16    19    1
    30    19    20   ar
    31    20    21   ar
    32    21    22   ar
    33    22    23   ar
    34    16    17   ar
    35    17    18   ar
    36    10     2    1
    37    18    13   ar
    38     7     3   ar
    39    23    19   ar
    40    28    24   ar
    41    35    29   ar
