@<TRIPOS>MOLECULE
*****
 32 35 0 0 0
SMALL
GASTEIGER

@<TRIPOS>ATOM
      1 C         141.6403  141.5794  169.1260 C.2     1  UNL1        0.1571
      2 N         141.3513  141.6015  170.5977 N.2     1  UNL1       -0.1436
      3 N         140.0719  140.8539  170.8301 N.2     1  UNL1       -0.1519
      4 C         139.5701  140.3697  169.5021 C.2     1  UNL1        0.0865
      5 C         138.3557  139.5784  169.1158 C.3     1  UNL1        0.0736
      6 C         138.1107  139.2356  167.6762 C.2     1  UNL1       -0.0196
      7 C         139.0801  139.6840  166.6229 C.2     1  UNL1       -0.0016
      8 C         140.2944  140.4752  167.0092 C.2     1  UNL1        0.0027
      9 C         140.5394  140.8181  168.4488 C.2     1  UNL1        0.0395
     10 C         138.8350  139.3411  165.1833 C.ar    1  UNL1        0.0294
     11 C         139.2094  137.9858  164.6609 C.ar    1  UNL1        0.0024
     12 C         138.9644  137.6429  163.2213 C.ar    1  UNL1        0.0025
     13 C         138.3449  138.6553  162.3041 C.ar    1  UNL1        0.0320
     14 C         137.9705  140.0107  162.8266 C.ar    1  UNL1        0.1674
     15 F         137.3510  141.0231  161.9095 F       1  UNL1       -0.2018
     16 C         138.2155  140.3535  164.2662 C.ar    1  UNL1        0.1673
     17 F         137.8411  141.7089  164.7886 F       1  UNL1       -0.2018
     18 N         142.8411  142.3581  166.9575 N.am    1  UNL1       -0.2996
     19 C         142.8225  142.2082  168.4500 C.2     1  UNL1        0.2654
     20 O         143.9862  142.6870  169.2663 O.2     1  UNL1       -0.2684
     21 H         142.0773  142.0438  166.4217 H       1  UNL1        0.1498
     22 C         144.0233  142.9869  166.2816 C.3     1  UNL1        0.0898
     23 N         144.5174  142.6317  161.8229 N.3     1  UNL1       -0.2706
     24 C         144.1293  143.9463  162.4321 C.3     1  UNL1        0.0722
     25 C         143.9646  144.0646  163.9184 C.3     1  UNL1        0.0191
     26 C         144.1880  142.8684  164.7954 C.3     1  UNL1        0.0224
     27 C         144.5762  141.5538  164.1862 C.3     1  UNL1        0.0191
     28 C         144.7408  141.4354  162.7000 C.3     1  UNL1        0.0722
     29 C         144.6821  142.5132  160.3367 C.3     1  UNL1        0.1046
     30 C         143.4911  142.6573  159.4363 C.3     1  UNL1        0.1595
     31 C         142.4764  144.2831  157.6820 C.3     1  UNL1        0.1742
     32 O         142.9912  144.0224  159.0666 O.3     1  UNL1       -0.3496
@<TRIPOS>BOND
     1    31    32    1
     2    32    30    1
     3    30    29    1
     4    29    23    1
     5    23    24    1
     6    24    25    1
     7    25    26    1
     8    26    22    1
     9    22    18    1
    10    18    19   am
    11    19    20    2
    12    19     1    1
    13     1     2    2
    14     2     3    1
    15     3     4    2
    16     4     5    1
    17     5     6    1
    18     6     7    2
    19     7    10    1
    20    10    11   ar
    21    11    12   ar
    22    12    13   ar
    23    13    14   ar
    24    14    15    1
    25    14    16   ar
    26    16    17    1
    27     7     8    1
    28     8     9    2
    29    26    27    1
    30    27    28    1
    31    28    23    1
    32     9     1    1
    33     9     4    1
    34    16    10   ar
    35    18    21    1
@<TRIPOS>MOLECULE
*****
 32 35 0 0 0
SMALL
GASTEIGER

@<TRIPOS>ATOM
      1 C         141.9968  141.5985  169.2199 C.2     1  UNL1        0.1571
      2 N         141.8578  141.4317  170.7041 N.2     1  UNL1       -0.1436
      3 N         140.5866  140.6809  170.9691 N.2     1  UNL1       -0.1519
      4 C         139.9399  140.3837  169.6487 C.2     1  UNL1        0.0865
      5 C         138.6700  139.6700  169.2911 C.3     1  UNL1        0.0736
      6 C         138.2717  139.5233  167.8524 C.2     1  UNL1       -0.0196
      7 C         139.1433  140.0905  166.7713 C.2     1  UNL1       -0.0016
      8 C         140.4132  140.8042  167.1290 C.2     1  UNL1        0.0027
      9 C         140.8115  140.9508  168.5676 C.2     1  UNL1        0.0395
     10 C         138.7450  139.9438  165.3326 C.ar    1  UNL1        0.0294
     11 C         138.0666  141.0778  164.6229 C.ar    1  UNL1        0.0024
     12 C         137.6683  140.9311  163.1841 C.ar    1  UNL1        0.0025
     13 C         137.9484  139.6504  162.4552 C.ar    1  UNL1        0.0320
     14 C         138.6268  138.5164  163.1650 C.ar    1  UNL1        0.1674
     15 F         138.9068  137.2357  162.4361 F       1  UNL1       -0.2018
     16 C         139.0251  138.6631  164.6037 C.ar    1  UNL1        0.1673
     17 F         139.7035  137.5290  165.3135 F       1  UNL1       -0.2018
     18 N         143.0955  142.4357  167.0194 N.am    1  UNL1       -0.2996
     19 C         143.1234  142.2914  168.5122 C.2     1  UNL1        0.2654
     20 O         144.2778  142.8399  169.2972 O.2     1  UNL1       -0.2684
     21 H         142.3377  142.0757  166.5041 H       1  UNL1        0.1498
     22 C         144.2220  143.1286  166.3117 C.3     1  UNL1        0.0898
     23 N         144.6133  142.7967  161.8410 N.3     1  UNL1       -0.2706
     24 C         143.7495  143.8662  162.4409 C.3     1  UNL1        0.0722
     25 C         143.6190  143.9768  163.9312 C.3     1  UNL1        0.0191
     26 C         144.3525  143.0179  164.8215 C.3     1  UNL1        0.0224
     27 C         145.2163  141.9484  164.2216 C.3     1  UNL1        0.0191
     28 C         145.3467  141.8378  162.7314 C.3     1  UNL1        0.0722
     29 C         144.7437  142.6860  160.3508 C.3     1  UNL1        0.1046
     30 C         143.8657  141.7375  159.5896 C.3     1  UNL1        0.1595
     31 C         143.6423  139.3364  160.5566 C.3     1  UNL1        0.1742
     32 O         143.0667  140.7019  160.3237 O.3     1  UNL1       -0.3496
@<TRIPOS>BOND
     1    31    32    1
     2    32    30    1
     3    30    29    1
     4    29    23    1
     5    23    24    1
     6    24    25    1
     7    25    26    1
     8    26    22    1
     9    22    18    1
    10    18    19   am
    11    19    20    2
    12    19     1    1
    13     1     2    2
    14     2     3    1
    15     3     4    2
    16     4     5    1
    17     5     6    1
    18     6     7    2
    19     7    10    1
    20    10    11   ar
    21    11    12   ar
    22    12    13   ar
    23    13    14   ar
    24    14    15    1
    25    14    16   ar
    26    16    17    1
    27     7     8    1
    28     8     9    2
    29    26    27    1
    30    27    28    1
    31    28    23    1
    32     9     1    1
    33     9     4    1
    34    16    10   ar
    35    18    21    1
@<TRIPOS>MOLECULE
*****
 32 35 0 0 0
SMALL
GASTEIGER

@<TRIPOS>ATOM
      1 C         138.6178  139.6080  168.1900 C.2     1  UNL1        0.1571
      2 N         138.0884  139.5848  169.5932 N.2     1  UNL1       -0.1436
      3 N         138.7832  140.6645  170.3687 N.2     1  UNL1       -0.1519
      4 C         139.7421  141.3550  169.4447 C.2     1  UNL1        0.0865
      5 C         140.6951  142.4940  169.6555 C.3     1  UNL1        0.0736
      6 C         141.5458  142.9800  168.5197 C.2     1  UNL1       -0.0196
      7 C         141.4436  142.3271  167.1732 C.2     1  UNL1       -0.0016
      8 C         140.4906  141.1881  166.9624 C.2     1  UNL1        0.0027
      9 C         139.6399  140.7021  168.0981 C.2     1  UNL1        0.0395
     10 C         142.2944  142.8131  166.0374 C.ar    1  UNL1        0.0294
     11 C         143.7762  142.5813  166.0577 C.ar    1  UNL1        0.0024
     12 C         144.6270  143.0674  164.9219 C.ar    1  UNL1        0.0025
     13 C         143.9959  143.7853  163.7659 C.ar    1  UNL1        0.0320
     14 C         142.5140  144.0170  163.7456 C.ar    1  UNL1        0.1674
     15 F         141.8830  144.7349  162.5896 F       1  UNL1       -0.2018
     16 C         141.6633  143.5310  164.8813 C.ar    1  UNL1        0.1673
     17 F         140.1814  143.7628  164.8611 F       1  UNL1       -0.2018
     18 N         139.0666  138.5506  165.8596 N.am    1  UNL1       -0.2996
     19 C         138.1988  138.6970  167.0743 C.2     1  UNL1        0.2654
     20 O         136.9121  137.9326  167.1734 O.2     1  UNL1       -0.2684
     21 H         139.9111  139.0523  165.7945 H       1  UNL1        0.1498
     22 C         138.6476  137.6396  164.7439 C.3     1  UNL1        0.0898
     23 N         140.1954  138.3287  160.5750 N.3     1  UNL1       -0.2706
     24 C         141.1412  137.9352  161.6707 C.3     1  UNL1        0.0722
     25 C         140.6252  137.7054  163.0604 C.3     1  UNL1        0.0191
     26 C         139.1635  137.8693  163.3543 C.3     1  UNL1        0.0224
     27 C         138.2177  138.2629  162.2586 C.3     1  UNL1        0.0191
     28 C         138.7336  138.4926  160.8690 C.3     1  UNL1        0.0722
     29 C         140.7113  138.5584  159.1854 C.3     1  UNL1        0.1046
     30 C         139.7585  138.9021  158.0791 C.3     1  UNL1        0.1595
     31 C         139.2277  138.2013  155.6342 C.3     1  UNL1        0.1742
     32 O         139.3501  137.8529  157.0880 O.3     1  UNL1       -0.3496
@<TRIPOS>BOND
     1    31    32    1
     2    32    30    1
     3    30    29    1
     4    29    23    1
     5    23    24    1
     6    24    25    1
     7    25    26    1
     8    26    22    1
     9    22    18    1
    10    18    19   am
    11    19    20    2
    12    19     1    1
    13     1     2    2
    14     2     3    1
    15     3     4    2
    16     4     5    1
    17     5     6    1
    18     6     7    2
    19     7    10    1
    20    10    11   ar
    21    11    12   ar
    22    12    13   ar
    23    13    14   ar
    24    14    15    1
    25    14    16   ar
    26    16    17    1
    27     7     8    1
    28     8     9    2
    29    26    27    1
    30    27    28    1
    31    28    23    1
    32     9     1    1
    33     9     4    1
    34    16    10   ar
    35    18    21    1
@<TRIPOS>MOLECULE
*****
 32 35 0 0 0
SMALL
GASTEIGER

@<TRIPOS>ATOM
      1 C         138.8684  139.6517  168.0675 C.2     1  UNL1        0.1571
      2 N         138.2431  139.7505  169.4274 N.2     1  UNL1       -0.1436
      3 N         139.1012  140.6489  170.2680 N.2     1  UNL1       -0.1519
      4 C         140.2568  141.1054  169.4276 C.2     1  UNL1        0.0865
      5 C         141.4215  142.0025  169.7250 C.3     1  UNL1        0.0736
      6 C         142.4423  142.2835  168.6625 C.2     1  UNL1       -0.0196
      7 C         142.2984  141.6672  167.3025 C.2     1  UNL1       -0.0016
      8 C         141.1337  140.7700  167.0051 C.2     1  UNL1        0.0027
      9 C         140.1129  140.4891  168.0676 C.2     1  UNL1        0.0395
     10 C         143.3193  141.9481  166.2399 C.ar    1  UNL1        0.0294
     11 C         143.8839  143.3295  166.0889 C.ar    1  UNL1        0.0024
     12 C         144.9048  143.6105  165.0263 C.ar    1  UNL1        0.0025
     13 C         145.3609  142.5100  164.1149 C.ar    1  UNL1        0.0320
     14 C         144.7963  141.1285  164.2660 C.ar    1  UNL1        0.1674
     15 F         145.2525  140.0280  163.3545 F       1  UNL1       -0.2018
     16 C         143.7755  140.8476  165.3285 C.ar    1  UNL1        0.1673
     17 F         143.2108  139.4661  165.4796 F       1  UNL1       -0.2018
     18 N         139.0980  138.8237  165.6156 N.am    1  UNL1       -0.2996
     19 C         138.3416  138.8554  166.9106 C.2     1  UNL1        0.2654
     20 O         137.0586  138.0908  167.0486 O.2     1  UNL1       -0.2684
     21 H         139.9402  139.3255  165.5250 H       1  UNL1        0.1498
     22 C         138.5713  138.0274  164.4587 C.3     1  UNL1        0.0898
     23 N         140.5672  138.3141  160.4357 N.3     1  UNL1       -0.2706
     24 C         141.3959  138.3177  161.6860 C.3     1  UNL1        0.0722
     25 C         140.7305  138.2221  163.0271 C.3     1  UNL1        0.0191
     26 C         139.2365  138.1230  163.1177 C.3     1  UNL1        0.0224
     27 C         138.4079  138.1194  161.8674 C.3     1  UNL1        0.0191
     28 C         139.0732  138.2150  160.5264 C.3     1  UNL1        0.0722
     29 C         141.2325  138.4097  159.0947 C.3     1  UNL1        0.1046
     30 C         142.6328  137.9032  158.9145 C.3     1  UNL1        0.1595
     31 C         142.0503  136.7206  156.6757 C.3     1  UNL1        0.1742
     32 O         143.0628  137.3416  157.5918 O.3     1  UNL1       -0.3496
@<TRIPOS>BOND
     1    31    32    1
     2    32    30    1
     3    30    29    1
     4    29    23    1
     5    23    24    1
     6    24    25    1
     7    25    26    1
     8    26    22    1
     9    22    18    1
    10    18    19   am
    11    19    20    2
    12    19     1    1
    13     1     2    2
    14     2     3    1
    15     3     4    2
    16     4     5    1
    17     5     6    1
    18     6     7    2
    19     7    10    1
    20    10    11   ar
    21    11    12   ar
    22    12    13   ar
    23    13    14   ar
    24    14    15    1
    25    14    16   ar
    26    16    17    1
    27     7     8    1
    28     8     9    2
    29    26    27    1
    30    27    28    1
    31    28    23    1
    32     9     1    1
    33     9     4    1
    34    16    10   ar
    35    18    21    1
@<TRIPOS>MOLECULE
*****
 32 35 0 0 0
SMALL
GASTEIGER

@<TRIPOS>ATOM
      1 C         139.5518  139.8850  167.8581 C.2     1  UNL1        0.1571
      2 N         139.3020  139.8804  169.3371 N.2     1  UNL1       -0.1436
      3 N         140.3644  140.7146  169.9892 N.2     1  UNL1       -0.1519
      4 C         141.2708  141.2349  168.9132 C.2     1  UNL1        0.0865
      5 C         142.4886  142.1092  168.9626 C.3     1  UNL1        0.0736
      6 C         143.2041  142.4708  167.6948 C.2     1  UNL1       -0.0196
      7 C         142.7019  141.9581  166.3777 C.2     1  UNL1       -0.0016
      8 C         141.4841  141.0837  166.3283 C.2     1  UNL1        0.0027
      9 C         140.7686  140.7221  167.5961 C.2     1  UNL1        0.0395
     10 C         143.4175  142.3197  165.1099 C.ar    1  UNL1        0.0294
     11 C         144.6397  141.5558  164.6945 C.ar    1  UNL1        0.0024
     12 C         145.3553  141.9174  163.4267 C.ar    1  UNL1        0.0025
     13 C         144.8486  143.0430  162.5744 C.ar    1  UNL1        0.0320
     14 C         143.6264  143.8069  162.9899 C.ar    1  UNL1        0.1674
     15 F         143.1197  144.9325  162.1377 F       1  UNL1       -0.2018
     16 C         142.9108  143.4453  164.2577 C.ar    1  UNL1        0.1673
     17 F         141.6886  144.2092  164.6732 F       1  UNL1       -0.2018
     18 N         139.1217  139.2464  165.3766 N.am    1  UNL1       -0.2996
     19 C         138.7292  139.1768  166.8228 C.2     1  UNL1        0.2654
     20 O         137.5142  138.3990  167.2335 O.2     1  UNL1       -0.2684
     21 H         139.9192  139.7569  165.1070 H       1  UNL1        0.1498
     22 C         138.2991  138.5383  164.3413 C.3     1  UNL1        0.0898
     23 N         138.6883  139.6647  160.0020 N.3     1  UNL1       -0.2706
     24 C         139.2383  138.3572  160.4897 C.3     1  UNL1        0.0722
     25 C         139.1086  137.9817  161.9362 C.3     1  UNL1        0.0191
     26 C         138.4288  138.9138  162.8949 C.3     1  UNL1        0.0224
     27 C         137.8788  140.2213  162.4072 C.3     1  UNL1        0.0191
     28 C         138.0085  140.5967  160.9608 C.3     1  UNL1        0.0722
     29 C         138.8180  140.0402  158.5556 C.3     1  UNL1        0.1046
     30 C         137.7427  140.8479  157.8912 C.3     1  UNL1        0.1595
     31 C         135.5708  140.6883  156.4742 C.3     1  UNL1        0.1742
     32 O         136.9930  140.2811  156.7221 O.3     1  UNL1       -0.3496
@<TRIPOS>BOND
     1    31    32    1
     2    32    30    1
     3    30    29    1
     4    29    23    1
     5    23    24    1
     6    24    25    1
     7    25    26    1
     8    26    22    1
     9    22    18    1
    10    18    19   am
    11    19    20    2
    12    19     1    1
    13     1     2    2
    14     2     3    1
    15     3     4    2
    16     4     5    1
    17     5     6    1
    18     6     7    2
    19     7    10    1
    20    10    11   ar
    21    11    12   ar
    22    12    13   ar
    23    13    14   ar
    24    14    15    1
    25    14    16   ar
    26    16    17    1
    27     7     8    1
    28     8     9    2
    29    26    27    1
    30    27    28    1
    31    28    23    1
    32     9     1    1
    33     9     4    1
    34    16    10   ar
    35    18    21    1
@<TRIPOS>MOLECULE
*****
 32 35 0 0 0
SMALL
GASTEIGER

@<TRIPOS>ATOM
      1 C         139.8615  139.9112  168.2435 C.2     1  UNL1        0.1571
      2 N         139.7428  139.8488  169.7375 N.2     1  UNL1       -0.1436
      3 N         140.8353  140.6922  170.3249 N.2     1  UNL1       -0.1519
      4 C         141.6293  141.2758  169.1940 C.2     1  UNL1        0.0865
      5 C         142.8226  142.1844  169.1693 C.3     1  UNL1        0.0736
      6 C         143.4139  142.6102  167.8583 C.2     1  UNL1       -0.0196
      7 C         142.8121  142.1275  166.5719 C.2     1  UNL1       -0.0016
      8 C         141.6188  141.2190  166.5965 C.2     1  UNL1        0.0027
      9 C         141.0275  140.7931  167.9076 C.2     1  UNL1        0.0395
     10 C         143.4035  142.5535  165.2608 C.ar    1  UNL1        0.0294
     11 C         143.2921  143.9817  164.8164 C.ar    1  UNL1        0.0024
     12 C         143.8835  144.4077  163.5053 C.ar    1  UNL1        0.0025
     13 C         144.5864  143.4052  162.6387 C.ar    1  UNL1        0.0320
     14 C         144.6978  141.9769  163.0831 C.ar    1  UNL1        0.1674
     15 F         145.4007  140.9744  162.2165 F       1  UNL1       -0.2018
     16 C         144.1064  141.5510  164.3942 C.ar    1  UNL1        0.1673
     17 F         144.2179  140.1227  164.8386 F       1  UNL1       -0.2018
     18 N         139.4213  139.0295  165.8395 N.am    1  UNL1       -0.2996
     19 C         138.9708  139.2141  167.2584 C.2     1  UNL1        0.2654
     20 O         137.6295  138.7014  167.6919 O.2     1  UNL1       -0.2684
     21 H         140.3017  139.3660  165.5549 H       1  UNL1        0.1498
     22 C         138.5305  138.3324  164.8544 C.3     1  UNL1        0.0898
     23 N         138.3659  139.7382  160.5827 N.3     1  UNL1       -0.2706
     24 C         138.8901  138.3695  160.9022 C.3     1  UNL1        0.0722
     25 C         138.9450  137.9009  162.3262 C.3     1  UNL1        0.0191
     26 C         138.4756  138.8010  163.4306 C.3     1  UNL1        0.0224
     27 C         137.9514  140.1696  163.1111 C.3     1  UNL1        0.0191
     28 C         137.8966  140.6382  161.6872 C.3     1  UNL1        0.0722
     29 C         138.3110  140.2068  159.1589 C.3     1  UNL1        0.1046
     30 C         139.4785  140.9371  158.5642 C.3     1  UNL1        0.1595
     31 C         141.8308  139.9756  159.1050 C.3     1  UNL1        0.1742
     32 O         140.7739  141.0189  159.3161 O.3     1  UNL1       -0.3496
@<TRIPOS>BOND
     1    31    32    1
     2    32    30    1
     3    30    29    1
     4    29    23    1
     5    23    24    1
     6    24    25    1
     7    25    26    1
     8    26    22    1
     9    22    18    1
    10    18    19   am
    11    19    20    2
    12    19     1    1
    13     1     2    2
    14     2     3    1
    15     3     4    2
    16     4     5    1
    17     5     6    1
    18     6     7    2
    19     7    10    1
    20    10    11   ar
    21    11    12   ar
    22    12    13   ar
    23    13    14   ar
    24    14    15    1
    25    14    16   ar
    26    16    17    1
    27     7     8    1
    28     8     9    2
    29    26    27    1
    30    27    28    1
    31    28    23    1
    32     9     1    1
    33     9     4    1
    34    16    10   ar
    35    18    21    1
@<TRIPOS>MOLECULE
*****
 32 35 0 0 0
SMALL
GASTEIGER

@<TRIPOS>ATOM
      1 C         138.6221  138.8299  166.0153 C.2     1  UNL1        0.1571
      2 N         137.8786  138.3347  167.2203 N.2     1  UNL1       -0.1436
      3 N         138.2665  139.1914  168.3888 N.2     1  UNL1       -0.1519
      4 C         139.2498  140.2162  167.9060 C.2     1  UNL1        0.0865
      5 C         139.9734  141.3239  168.6127 C.3     1  UNL1        0.0736
      6 C         140.9168  142.2081  167.8524 C.2     1  UNL1       -0.0196
      7 C         141.1366  141.9847  166.3855 C.2     1  UNL1       -0.0016
      8 C         140.4130  140.8770  165.6789 C.2     1  UNL1        0.0027
      9 C         139.4696  139.9928  166.4392 C.2     1  UNL1        0.0395
     10 C         142.0800  142.8690  165.6252 C.ar    1  UNL1        0.0294
     11 C         143.5604  142.7336  165.8250 C.ar    1  UNL1        0.0024
     12 C         144.5039  143.6179  165.0647 C.ar    1  UNL1        0.0025
     13 C         143.9668  144.6377  164.1047 C.ar    1  UNL1        0.0320
     14 C         142.4863  144.7731  163.9049 C.ar    1  UNL1        0.1674
     15 F         141.9493  145.7929  162.9449 F       1  UNL1       -0.2018
     16 C         141.5430  143.8888  164.6652 C.ar    1  UNL1        0.1673
     17 F         140.0624  144.0242  164.4655 F       1  UNL1       -0.2018
     18 N         138.1721  139.1507  163.4767 N.am    1  UNL1       -0.2996
     19 C         138.5337  138.2620  164.6298 C.2     1  UNL1        0.2654
     20 O         138.8069  136.8057  164.3973 O.2     1  UNL1       -0.2684
     21 H         137.9927  140.1066  163.6292 H       1  UNL1        0.1498
     22 C         138.0837  138.5828  162.0911 C.3     1  UNL1        0.0898
     23 N         141.6698  138.7075  159.3755 N.3     1  UNL1       -0.2706
     24 C         140.3400  139.1984  158.8849 C.3     1  UNL1        0.0722
     25 C         139.1446  139.1569  159.7901 C.3     1  UNL1        0.0191
     26 C         139.2790  138.6244  161.1860 C.3     1  UNL1        0.0224
     27 C         140.6088  138.1335  161.6766 C.3     1  UNL1        0.0191
     28 C         141.8041  138.1750  160.7714 C.3     1  UNL1        0.0722
     29 C         142.8651  138.7490  158.4703 C.3     1  UNL1        0.1046
     30 C         142.8635  137.9681  157.1897 C.3     1  UNL1        0.1595
     31 C         143.1656  135.4219  156.7704 C.3     1  UNL1        0.1742
     32 O         142.2952  136.5804  157.1582 O.3     1  UNL1       -0.3496
@<TRIPOS>BOND
     1    31    32    1
     2    32    30    1
     3    30    29    1
     4    29    23    1
     5    23    24    1
     6    24    25    1
     7    25    26    1
     8    26    22    1
     9    22    18    1
    10    18    19   am
    11    19    20    2
    12    19     1    1
    13     1     2    2
    14     2     3    1
    15     3     4    2
    16     4     5    1
    17     5     6    1
    18     6     7    2
    19     7    10    1
    20    10    11   ar
    21    11    12   ar
    22    12    13   ar
    23    13    14   ar
    24    14    15    1
    25    14    16   ar
    26    16    17    1
    27     7     8    1
    28     8     9    2
    29    26    27    1
    30    27    28    1
    31    28    23    1
    32     9     1    1
    33     9     4    1
    34    16    10   ar
    35    18    21    1
@<TRIPOS>MOLECULE
*****
 32 35 0 0 0
SMALL
GASTEIGER

@<TRIPOS>ATOM
      1 C         143.7527  141.2487  163.2571 C.2     1  UNL1        0.1571
      2 N         144.4746  140.1446  162.5431 N.2     1  UNL1       -0.1436
      3 N         144.5320  138.9592  163.4605 N.2     1  UNL1       -0.1519
      4 C         143.8455  139.3307  164.7414 C.2     1  UNL1        0.0865
      5 C         143.5968  138.5633  166.0060 C.3     1  UNL1        0.0736
      6 C         142.8665  139.2110  167.1449 C.2     1  UNL1       -0.0196
      7 C         142.3849  140.6260  167.0192 C.2     1  UNL1       -0.0016
      8 C         142.6336  141.3934  165.7546 C.2     1  UNL1        0.0027
      9 C         143.3639  140.7457  164.6157 C.2     1  UNL1        0.0395
     10 C         141.6546  141.2736  168.1582 C.ar    1  UNL1        0.0294
     11 C         142.2447  142.4699  168.8442 C.ar    1  UNL1        0.0024
     12 C         141.5144  143.1175  169.9832 C.ar    1  UNL1        0.0025
     13 C         140.1939  142.5688  170.4362 C.ar    1  UNL1        0.0320
     14 C         139.6037  141.3725  169.7501 C.ar    1  UNL1        0.1674
     15 F         138.2832  140.8237  170.2031 F       1  UNL1       -0.2018
     16 C         140.3341  140.7249  168.6112 C.ar    1  UNL1        0.1673
     17 F         139.7439  139.5286  167.9252 F       1  UNL1       -0.2018
     18 N         142.0706  142.9926  162.3192 N.am    1  UNL1       -0.2996
     19 C         143.4694  142.6158  162.7088 C.2     1  UNL1        0.2654
     20 O         144.5846  143.6062  162.5500 O.2     1  UNL1       -0.2684
     21 H         141.3386  142.3426  162.4234 H       1  UNL1        0.1498
     22 C         141.7872  144.3597  161.7709 C.3     1  UNL1        0.0898
     23 N         141.0639  144.9108  157.3637 N.3     1  UNL1       -0.2706
     24 C         140.2585  145.6918  158.3593 C.3     1  UNL1        0.0722
     25 C         140.4997  145.5081  159.8285 C.3     1  UNL1        0.0191
     26 C         141.5462  144.5434  160.3019 C.3     1  UNL1        0.0224
     27 C         142.3516  143.7623  159.3062 C.3     1  UNL1        0.0191
     28 C         142.1104  143.9460  157.8372 C.3     1  UNL1        0.0722
     29 C         140.8229  145.0944  155.8946 C.3     1  UNL1        0.1046
     30 C         140.1093  146.3171  155.3989 C.3     1  UNL1        0.1595
     31 C         137.9002  144.9632  155.2060 C.3     1  UNL1        0.1742
     32 O         138.6322  146.2709  155.1417 O.3     1  UNL1       -0.3496
@<TRIPOS>BOND
     1    31    32    1
     2    32    30    1
     3    30    29    1
     4    29    23    1
     5    23    24    1
     6    24    25    1
     7    25    26    1
     8    26    22    1
     9    22    18    1
    10    18    19   am
    11    19    20    2
    12    19     1    1
    13     1     2    2
    14     2     3    1
    15     3     4    2
    16     4     5    1
    17     5     6    1
    18     6     7    2
    19     7    10    1
    20    10    11   ar
    21    11    12   ar
    22    12    13   ar
    23    13    14   ar
    24    14    15    1
    25    14    16   ar
    26    16    17    1
    27     7     8    1
    28     8     9    2
    29    26    27    1
    30    27    28    1
    31    28    23    1
    32     9     1    1
    33     9     4    1
    34    16    10   ar
    35    18    21    1
@<TRIPOS>MOLECULE
*****
 32 35 0 0 0
SMALL
GASTEIGER

@<TRIPOS>ATOM
      1 C         140.9898  138.5852  163.3262 C.2     1  UNL1        0.1571
      2 N         139.9657  137.6498  162.7550 N.2     1  UNL1       -0.1436
      3 N         138.8382  137.5407  163.7383 N.2     1  UNL1       -0.1519
      4 C         139.1655  138.4086  164.9171 C.2     1  UNL1        0.0865
      5 C         138.4245  138.6945  166.1895 C.3     1  UNL1        0.0736
      6 C         139.0132  139.6260  167.2072 C.2     1  UNL1       -0.0196
      7 C         140.3430  140.2716  166.9524 C.2     1  UNL1       -0.0016
      8 C         141.0841  139.9856  165.6800 C.2     1  UNL1        0.0027
      9 C         140.4953  139.0542  164.6624 C.2     1  UNL1        0.0395
     10 C         140.9318  141.2031  167.9702 C.ar    1  UNL1        0.0294
     11 C         140.1720  142.4235  168.3981 C.ar    1  UNL1        0.0024
     12 C         140.7607  143.3550  169.4158 C.ar    1  UNL1        0.0025
     13 C         142.1093  143.0660  170.0056 C.ar    1  UNL1        0.0320
     14 C         142.8691  141.8455  169.5776 C.ar    1  UNL1        0.1674
     15 F         144.2177  141.5565  170.1674 F       1  UNL1       -0.2018
     16 C         142.2804  140.9141  168.5600 C.ar    1  UNL1        0.1673
     17 F         143.0402  139.6935  168.1320 F       1  UNL1       -0.2018
     18 N         142.5823  140.4303  162.4263 N.am    1  UNL1       -0.2996
     19 C         142.2817  138.9819  162.6753 C.2     1  UNL1        0.2654
     20 O         143.2731  137.9305  162.2735 O.2     1  UNL1       -0.2684
     21 H         141.9317  141.1205  162.6900 H       1  UNL1        0.1498
     22 C         143.8742  140.8271  161.7755 C.3     1  UNL1        0.0898
     23 N         143.9965  141.6934  157.3613 N.3     1  UNL1       -0.2706
     24 C         143.7878  140.2888  157.8444 C.3     1  UNL1        0.0722
     25 C         143.7471  140.0000  159.3159 C.3     1  UNL1        0.0191
     26 C         143.9150  141.1159  160.3041 C.3     1  UNL1        0.0224
     27 C         144.1236  142.5206  159.8210 C.3     1  UNL1        0.0191
     28 C         144.1644  142.8093  158.3496 C.3     1  UNL1        0.0722
     29 C         144.0372  141.9822  155.8900 C.3     1  UNL1        0.1046
     30 C         145.3417  141.9298  155.1513 C.3     1  UNL1        0.1595
     31 C         147.5519  142.4940  156.3950 C.3     1  UNL1        0.1742
     32 O         146.5860  141.4798  155.8577 O.3     1  UNL1       -0.3496
@<TRIPOS>BOND
     1    31    32    1
     2    32    30    1
     3    30    29    1
     4    29    23    1
     5    23    24    1
     6    24    25    1
     7    25    26    1
     8    26    22    1
     9    22    18    1
    10    18    19   am
    11    19    20    2
    12    19     1    1
    13     1     2    2
    14     2     3    1
    15     3     4    2
    16     4     5    1
    17     5     6    1
    18     6     7    2
    19     7    10    1
    20    10    11   ar
    21    11    12   ar
    22    12    13   ar
    23    13    14   ar
    24    14    15    1
    25    14    16   ar
    26    16    17    1
    27     7     8    1
    28     8     9    2
    29    26    27    1
    30    27    28    1
    31    28    23    1
    32     9     1    1
    33     9     4    1
    34    16    10   ar
    35    18    21    1
