@<TRIPOS>MOLECULE
*****
 45 48 0 0 0
SMALL
GASTEIGER

@<TRIPOS>ATOM
      1 C         142.1932  141.1760  163.1748 C.3     1  UNL1        0.0779
      2 C         142.1445  141.3567  164.6632 C.ar    1  UNL1        0.0373
      3 C         140.9903  140.8073  165.4480 C.ar    1  UNL1        0.0023
      4 C         140.9416  140.9880  166.9363 C.ar    1  UNL1        0.0183
      5 C         139.7874  140.4386  167.7211 C.ar    1  UNL1        0.0118
      6 C         139.7387  140.6193  169.2094 C.ar    1  UNL1        0.0685
      7 C         140.8442  141.3495  169.9128 C.ar    1  UNL1        0.0118
      8 C         141.9983  141.8989  169.1280 C.ar    1  UNL1        0.0199
      9 C         142.0470  141.7182  167.6397 C.ar    1  UNL1        0.0844
     10 N         143.2012  142.2676  166.8548 N.ar    1  UNL1       -0.2119
     11 C         143.2499  142.0869  165.3666 C.ar    1  UNL1        0.2211
     12 C         138.5845  140.0699  169.9943 C.1     1  UNL1        0.1004
     13 N         137.4304  139.5205  170.7792 N.1     1  UNL1       -0.1908
     14 O         144.4041  142.6363  164.5817 O.3     1  UNL1       -0.4563
     15 C         144.3526  144.0399  164.0551 C.3     1  UNL1        0.2542
     16 C         141.7034  142.2677  162.2703 C.ar    1  UNL1       -0.0064
     17 C         140.3841  142.9289  162.5391 C.ar    1  UNL1        0.0540
     18 C         139.8943  144.0207  161.6346 C.ar    1  UNL1        0.2272
     19 N         140.7237  144.4512  160.4613 N.ar    1  UNL1       -0.1767
     20 C         142.0430  143.7899  160.1925 C.ar    1  UNL1        0.2270
     21 C         142.5329  142.6982  161.0970 C.ar    1  UNL1        0.0540
     22 O         138.5750  144.6819  161.9034 O.3     1  UNL1       -0.4561
     23 C         137.6706  144.4481  163.0771 C.3     1  UNL1        0.2542
     24 O         142.8725  144.2204  159.0192 O.3     1  UNL1       -0.4640
     25 C         142.2192  144.4818  157.6944 C.3     1  UNL1        0.1678
     26 C         141.9409  145.8905  157.2604 C.3     1  UNL1        0.0473
     27 C         141.8441  143.3347  156.8037 C.3     1  UNL1        0.0473
     28 C         142.7318  139.9035  162.5911 C.3     1  UNL1        0.1161
     29 O         144.1316  140.4036  162.7925 O.3     1  UNL1       -0.3820
     30 H         144.7617  139.7355  162.4800 H       1  UNL1        0.2107
     31 C         139.2055  139.2024  160.9108 C.ar    1  UNL1        0.2272
     32 C         140.6053  139.7025  161.1121 C.ar    1  UNL1        0.0559
     33 C         141.3320  139.4034  162.3898 C.ar    1  UNL1        0.0117
     34 C         140.6590  138.6042  163.4660 C.ar    1  UNL1        0.0559
     35 C         139.2592  138.1042  163.2646 C.ar    1  UNL1        0.2272
     36 N         138.5325  138.4032  161.9870 N.ar    1  UNL1       -0.1767
     37 C         139.2391  139.9815  158.4325 C.3     1  UNL1        0.2542
     38 O         138.4787  139.5015  159.6331 O.3     1  UNL1       -0.4561
     39 O         138.5862  137.3050  164.3410 O.3     1  UNL1       -0.4561
     40 C         138.4033  137.6984  165.7768 C.3     1  UNL1        0.2542
     41 C         143.2704  138.6310  162.0074 C.3     1  UNL1        0.0491
     42 C         144.1436  138.6756  160.7887 C.3     1  UNL1        0.0750
     43 N         143.5287  138.8465  159.4312 N.3     1  UNL1       -0.2702
     44 C         143.6943  140.1402  158.6904 C.3     1  UNL1        0.0897
     45 C         142.7482  137.7238  158.8146 C.3     1  UNL1        0.0897
@<TRIPOS>BOND
     1    37    38    1
     2    38    31    1
     3    31    32   ar
     4    32    33   ar
     5    33    28    1
     6    28    29    1
     7    28    41    1
     8    41    42    1
     9    42    43    1
    10    43    44    1
    11    43    45    1
    12    28     1    1
    13     1    16    1
    14    16    17   ar
    15    17    18   ar
    16    18    22    1
    17    22    23    1
    18    18    19   ar
    19    19    20   ar
    20    20    24    1
    21    24    25    1
    22    25    26    1
    23    25    27    1
    24    20    21   ar
    25     1     2    1
    26     2     3   ar
    27     3     4   ar
    28     4     5   ar
    29     5     6   ar
    30     6    12    1
    31    12    13    3
    32     6     7   ar
    33     7     8   ar
    34     8     9   ar
    35     9    10   ar
    36    10    11   ar
    37    11    14    1
    38    14    15    1
    39    33    34   ar
    40    34    35   ar
    41    35    39    1
    42    39    40    1
    43    35    36   ar
    44    36    31   ar
    45    21    16   ar
    46    11     2   ar
    47     9     4   ar
    48    29    30    1
@<TRIPOS>MOLECULE
*****
 45 48 0 0 0
SMALL
GASTEIGER

@<TRIPOS>ATOM
      1 C         142.0806  140.8675  162.2535 C.3     1  UNL1        0.0779
      2 C         142.2701  140.6233  163.7214 C.ar    1  UNL1        0.0373
      3 C         141.0803  140.5757  164.6335 C.ar    1  UNL1        0.0023
      4 C         141.2698  140.3314  166.1013 C.ar    1  UNL1        0.0183
      5 C         140.0800  140.2838  167.0135 C.ar    1  UNL1        0.0118
      6 C         140.2696  140.0396  168.4812 C.ar    1  UNL1        0.0685
      7 C         141.6489  139.8429  169.0369 C.ar    1  UNL1        0.0118
      8 C         142.8387  139.8905  168.1247 C.ar    1  UNL1        0.0199
      9 C         142.6492  140.1348  166.6570 C.ar    1  UNL1        0.0844
     10 N         143.8390  140.1824  165.7447 N.ar    1  UNL1       -0.2119
     11 C         143.6495  140.4266  164.2770 C.ar    1  UNL1        0.2211
     12 C         139.0797  139.9920  169.3935 C.1     1  UNL1        0.1004
     13 N         137.8899  139.9444  170.3056 N.1     1  UNL1       -0.1908
     14 O         144.8393  140.4742  163.3647 O.3     1  UNL1       -0.4563
     15 C         145.8134  141.6108  163.4613 C.3     1  UNL1        0.2542
     16 C         141.7084  142.2351  161.7627 C.ar    1  UNL1       -0.0064
     17 C         142.2657  142.7442  160.4665 C.ar    1  UNL1        0.0540
     18 C         141.8935  144.1119  159.9756 C.ar    1  UNL1        0.2272
     19 N         140.9639  144.9705  160.7810 N.ar    1  UNL1       -0.1767
     20 C         140.4065  144.4614  162.0773 C.ar    1  UNL1        0.2270
     21 C         140.7788  143.0938  162.5681 C.ar    1  UNL1        0.0540
     22 O         142.4508  144.6209  158.6794 O.3     1  UNL1       -0.4561
     23 C         141.9077  145.7396  157.8406 C.3     1  UNL1        0.2542
     24 O         139.4770  145.3200  162.8827 O.3     1  UNL1       -0.4640
     25 C         138.5541  144.6915  163.8844 C.3     1  UNL1        0.1678
     26 C         137.4217  143.8243  163.4201 C.3     1  UNL1        0.0473
     27 C         138.7638  144.9302  165.3504 C.3     1  UNL1        0.0473
     28 C         142.2634  139.7441  161.2765 C.3     1  UNL1        0.1161
     29 O         143.7127  140.1036  161.1342 O.3     1  UNL1       -0.3820
     30 H         144.1365  139.4962  160.5079 H       1  UNL1        0.2107
     31 C         138.3656  139.5281  160.5619 C.ar    1  UNL1        0.2272
     32 C         139.8149  139.8876  160.4196 C.ar    1  UNL1        0.0559
     33 C         140.8141  139.3845  161.4189 C.ar    1  UNL1        0.0117
     34 C         140.3639  138.5219  162.5604 C.ar    1  UNL1        0.0559
     35 C         138.9146  138.1624  162.7027 C.ar    1  UNL1        0.2272
     36 N         137.9155  138.6654  161.7035 N.ar    1  UNL1       -0.1767
     37 C         137.8351  140.7139  158.3119 C.3     1  UNL1        0.2542
     38 O         137.3664  140.0312  159.5626 O.3     1  UNL1       -0.4561
     39 O         138.4645  137.2997  163.8444 O.3     1  UNL1       -0.4561
     40 C         138.8001  137.4756  165.2957 C.3     1  UNL1        0.2542
     41 C         142.4462  138.6206  160.2996 C.3     1  UNL1        0.0491
     42 C         143.3681  138.7878  159.1283 C.3     1  UNL1        0.0750
     43 N         143.0920  139.8459  158.1016 N.3     1  UNL1       -0.2702
     44 C         144.1567  140.8403  157.7443 C.3     1  UNL1        0.0897
     45 C         141.7513  139.9097  157.4321 C.3     1  UNL1        0.0897
@<TRIPOS>BOND
     1    37    38    1
     2    38    31    1
     3    31    32   ar
     4    32    33   ar
     5    33    28    1
     6    28    29    1
     7    28    41    1
     8    41    42    1
     9    42    43    1
    10    43    44    1
    11    43    45    1
    12    28     1    1
    13     1    16    1
    14    16    17   ar
    15    17    18   ar
    16    18    22    1
    17    22    23    1
    18    18    19   ar
    19    19    20   ar
    20    20    24    1
    21    24    25    1
    22    25    26    1
    23    25    27    1
    24    20    21   ar
    25     1     2    1
    26     2     3   ar
    27     3     4   ar
    28     4     5   ar
    29     5     6   ar
    30     6    12    1
    31    12    13    3
    32     6     7   ar
    33     7     8   ar
    34     8     9   ar
    35     9    10   ar
    36    10    11   ar
    37    11    14    1
    38    14    15    1
    39    33    34   ar
    40    34    35   ar
    41    35    39    1
    42    39    40    1
    43    35    36   ar
    44    36    31   ar
    45    21    16   ar
    46    11     2   ar
    47     9     4   ar
    48    29    30    1
@<TRIPOS>MOLECULE
*****
 45 48 0 0 0
SMALL
GASTEIGER

@<TRIPOS>ATOM
      1 C         140.7636  139.8970  161.9943 C.3     1  UNL1        0.0779
      2 C         140.2047  139.6928  163.3713 C.ar    1  UNL1        0.0373
      3 C         140.6878  140.5409  164.5102 C.ar    1  UNL1        0.0023
      4 C         140.1289  140.3367  165.8872 C.ar    1  UNL1        0.0183
      5 C         140.6120  141.1849  167.0261 C.ar    1  UNL1        0.0118
      6 C         140.0531  140.9806  168.4030 C.ar    1  UNL1        0.0685
      7 C         139.0112  139.9282  168.6410 C.ar    1  UNL1        0.0118
      8 C         138.5281  139.0800  167.5021 C.ar    1  UNL1        0.0199
      9 C         139.0869  139.2843  166.1252 C.ar    1  UNL1        0.0844
     10 N         138.6038  138.4361  164.9862 N.ar    1  UNL1       -0.2119
     11 C         139.1627  138.6403  163.6093 C.ar    1  UNL1        0.2211
     12 C         140.5362  141.8288  169.5420 C.1     1  UNL1        0.1004
     13 N         141.0193  142.6770  170.6809 N.1     1  UNL1       -0.1908
     14 O         138.6796  137.7921  162.4703 O.3     1  UNL1       -0.4563
     15 C         137.5673  138.2807  161.5905 C.3     1  UNL1        0.2542
     16 C         140.2946  141.0505  161.1580 C.ar    1  UNL1       -0.0064
     17 C         140.2215  140.9143  159.6660 C.ar    1  UNL1        0.0540
     18 C         139.7525  142.0679  158.8297 C.ar    1  UNL1        0.2272
     19 N         139.3566  143.3576  159.4854 N.ar    1  UNL1       -0.1767
     20 C         139.4297  143.4937  160.9775 C.ar    1  UNL1        0.2270
     21 C         139.8987  142.3402  161.8137 C.ar    1  UNL1        0.0540
     22 O         139.6794  141.9317  157.3377 O.3     1  UNL1       -0.4561
     23 C         138.5325  142.3173  156.4511 C.3     1  UNL1        0.2542
     24 O         139.0338  144.7834  161.6332 O.3     1  UNL1       -0.4640
     25 C         139.5823  145.1375  162.9837 C.3     1  UNL1        0.1678
     26 C         140.9281  145.7898  163.0991 C.3     1  UNL1        0.0473
     27 C         138.7851  144.8391  164.2187 C.3     1  UNL1        0.0473
     28 C         141.7914  138.9477  161.4537 C.3     1  UNL1        0.1161
     29 O         140.7519  138.3260  160.5689 O.3     1  UNL1       -0.3820
     30 H         141.1545  137.6132  160.0486 H       1  UNL1        0.2107
     31 C         144.3725  139.4491  164.4263 C.ar    1  UNL1        0.2272
     32 C         143.3330  138.8274  163.5415 C.ar    1  UNL1        0.0559
     33 C         142.8310  139.5694  162.3384 C.ar    1  UNL1        0.0117
     34 C         143.3686  140.9330  162.0201 C.ar    1  UNL1        0.0559
     35 C         144.4081  141.5547  162.9049 C.ar    1  UNL1        0.2272
     36 N         144.9101  140.8128  164.1080 N.ar    1  UNL1       -0.1767
     37 C         143.9064  138.0088  166.5378 C.3     1  UNL1        0.2542
     38 O         144.8745  138.7070  165.6294 O.3     1  UNL1       -0.4561
     39 O         144.9457  142.9185  162.5865 O.3     1  UNL1       -0.4561
     40 C         144.2615  144.2340  162.8130 C.3     1  UNL1        0.2542
     41 C         142.8193  137.9984  160.9131 C.3     1  UNL1        0.0491
     42 C         142.7823  137.5959  159.4686 C.3     1  UNL1        0.0750
     43 N         143.0154  138.6206  158.3982 N.3     1  UNL1       -0.2702
     44 C         143.8101  139.8557  158.7028 C.3     1  UNL1        0.0897
     45 C         142.4538  138.4101  157.0234 C.3     1  UNL1        0.0897
@<TRIPOS>BOND
     1    37    38    1
     2    38    31    1
     3    31    32   ar
     4    32    33   ar
     5    33    28    1
     6    28    29    1
     7    28    41    1
     8    41    42    1
     9    42    43    1
    10    43    44    1
    11    43    45    1
    12    28     1    1
    13     1    16    1
    14    16    17   ar
    15    17    18   ar
    16    18    22    1
    17    22    23    1
    18    18    19   ar
    19    19    20   ar
    20    20    24    1
    21    24    25    1
    22    25    26    1
    23    25    27    1
    24    20    21   ar
    25     1     2    1
    26     2     3   ar
    27     3     4   ar
    28     4     5   ar
    29     5     6   ar
    30     6    12    1
    31    12    13    3
    32     6     7   ar
    33     7     8   ar
    34     8     9   ar
    35     9    10   ar
    36    10    11   ar
    37    11    14    1
    38    14    15    1
    39    33    34   ar
    40    34    35   ar
    41    35    39    1
    42    39    40    1
    43    35    36   ar
    44    36    31   ar
    45    21    16   ar
    46    11     2   ar
    47     9     4   ar
    48    29    30    1
@<TRIPOS>MOLECULE
*****
 45 48 0 0 0
SMALL
GASTEIGER

@<TRIPOS>ATOM
      1 C         141.5715  140.5908  163.3282 C.3     1  UNL1        0.0779
      2 C         141.8121  140.5180  164.8071 C.ar    1  UNL1        0.0373
      3 C         140.9772  141.3395  165.7441 C.ar    1  UNL1        0.0023
      4 C         141.2177  141.2668  167.2229 C.ar    1  UNL1        0.0183
      5 C         140.3828  142.0883  168.1599 C.ar    1  UNL1        0.0118
      6 C         140.6234  142.0155  169.6387 C.ar    1  UNL1        0.0685
      7 C         141.6988  141.1212  170.1804 C.ar    1  UNL1        0.0118
      8 C         142.5337  140.2996  169.2435 C.ar    1  UNL1        0.0199
      9 C         142.2932  140.3724  167.7647 C.ar    1  UNL1        0.0844
     10 N         143.1281  139.5508  166.8277 N.ar    1  UNL1       -0.2119
     11 C         142.8875  139.6237  165.3489 C.ar    1  UNL1        0.2211
     12 C         139.7884  142.8371  170.5757 C.1     1  UNL1        0.1004
     13 N         138.9536  143.6586  171.5128 N.1     1  UNL1       -0.1908
     14 O         143.7225  138.8021  164.4118 O.3     1  UNL1       -0.4563
     15 C         145.0416  139.3263  163.9270 C.3     1  UNL1        0.2542
     16 C         142.4487  141.4504  162.4671 C.ar    1  UNL1       -0.0064
     17 C         142.8690  142.8087  162.9449 C.ar    1  UNL1        0.0540
     18 C         143.7462  143.6685  162.0838 C.ar    1  UNL1        0.2272
     19 N         144.2030  143.1698  160.7449 N.ar    1  UNL1       -0.1767
     20 C         143.7827  141.8114  160.2672 C.ar    1  UNL1        0.2270
     21 C         142.9056  140.9518  161.1283 C.ar    1  UNL1        0.0540
     22 O         144.1664  145.0268  162.5616 O.3     1  UNL1       -0.4561
     23 C         143.8479  145.6567  163.8852 C.3     1  UNL1        0.2542
     24 O         144.2396  141.3128  158.9283 O.3     1  UNL1       -0.4640
     25 C         144.5716  142.2882  157.8380 C.3     1  UNL1        0.1678
     26 C         143.4732  143.0282  157.1337 C.3     1  UNL1        0.0473
     27 C         146.0018  142.5235  157.4521 C.3     1  UNL1        0.0473
     28 C         140.4538  139.8039  162.7106 C.3     1  UNL1        0.1161
     29 O         141.1775  138.5284  163.0261 O.3     1  UNL1       -0.3820
     30 H         140.6520  137.7737  162.7175 H       1  UNL1        0.2107
     31 C         138.8115  142.7731  160.6524 C.ar    1  UNL1        0.2272
     32 C         139.5352  141.4976  160.9679 C.ar    1  UNL1        0.0559
     33 C         139.7302  141.0793  162.3951 C.ar    1  UNL1        0.0117
     34 C         139.2017  141.9365  163.5067 C.ar    1  UNL1        0.0559
     35 C         138.4780  143.2119  163.1912 C.ar    1  UNL1        0.2272
     36 N         138.2830  143.6303  161.7640 N.ar    1  UNL1       -0.1767
     37 C         139.8064  143.4095  158.3382 C.3     1  UNL1        0.2542
     38 O         138.6165  143.1914  159.2251 O.3     1  UNL1       -0.4561
     39 O         137.9494  144.0691  164.3030 O.3     1  UNL1       -0.4561
     40 C         138.7501  144.7801  165.3534 C.3     1  UNL1        0.2542
     41 C         139.3361  139.0169  162.0929 C.3     1  UNL1        0.0491
     42 C         138.3883  138.2487  162.9655 C.3     1  UNL1        0.0750
     43 N         138.5900  138.2234  164.4516 N.3     1  UNL1       -0.2702
     44 C         138.0430  139.3314  165.3018 C.3     1  UNL1        0.0897
     45 C         139.3388  137.0899  165.0876 C.3     1  UNL1        0.0897
@<TRIPOS>BOND
     1    37    38    1
     2    38    31    1
     3    31    32   ar
     4    32    33   ar
     5    33    28    1
     6    28    29    1
     7    28    41    1
     8    41    42    1
     9    42    43    1
    10    43    44    1
    11    43    45    1
    12    28     1    1
    13     1    16    1
    14    16    17   ar
    15    17    18   ar
    16    18    22    1
    17    22    23    1
    18    18    19   ar
    19    19    20   ar
    20    20    24    1
    21    24    25    1
    22    25    26    1
    23    25    27    1
    24    20    21   ar
    25     1     2    1
    26     2     3   ar
    27     3     4   ar
    28     4     5   ar
    29     5     6   ar
    30     6    12    1
    31    12    13    3
    32     6     7   ar
    33     7     8   ar
    34     8     9   ar
    35     9    10   ar
    36    10    11   ar
    37    11    14    1
    38    14    15    1
    39    33    34   ar
    40    34    35   ar
    41    35    39    1
    42    39    40    1
    43    35    36   ar
    44    36    31   ar
    45    21    16   ar
    46    11     2   ar
    47     9     4   ar
    48    29    30    1
@<TRIPOS>MOLECULE
*****
 45 48 0 0 0
SMALL
GASTEIGER

@<TRIPOS>ATOM
      1 C         140.8237  139.9168  161.9817 C.3     1  UNL1        0.0779
      2 C         140.2395  139.7006  163.3463 C.ar    1  UNL1        0.0373
      3 C         140.7071  140.5335  164.5029 C.ar    1  UNL1        0.0023
      4 C         140.1228  140.3173  165.8675 C.ar    1  UNL1        0.0183
      5 C         140.5904  141.1502  167.0240 C.ar    1  UNL1        0.0118
      6 C         140.0062  140.9340  168.3885 C.ar    1  UNL1        0.0685
      7 C         138.9544  139.8850  168.5965 C.ar    1  UNL1        0.0118
      8 C         138.4868  139.0522  167.4399 C.ar    1  UNL1        0.0199
      9 C         139.0710  139.2683  166.0754 C.ar    1  UNL1        0.0844
     10 N         138.6034  138.4354  164.9188 N.ar    1  UNL1       -0.2119
     11 C         139.1876  138.6516  163.5543 C.ar    1  UNL1        0.2211
     12 C         140.4738  141.7669  169.5452 C.1     1  UNL1        0.1004
     13 N         140.9413  142.5997  170.7018 N.1     1  UNL1       -0.1908
     14 O         138.7201  137.8187  162.3976 O.3     1  UNL1       -0.4563
     15 C         137.5649  138.2804  161.5595 C.3     1  UNL1        0.2542
     16 C         140.3867  141.0904  161.1561 C.ar    1  UNL1       -0.0064
     17 C         140.4692  141.0269  159.6598 C.ar    1  UNL1        0.0540
     18 C         140.0323  142.2005  158.8341 C.ar    1  UNL1        0.2272
     19 N         139.5128  143.4376  159.5048 N.ar    1  UNL1       -0.1767
     20 C         139.4304  143.5010  161.0012 C.ar    1  UNL1        0.2270
     21 C         139.8673  142.3274  161.8268 C.ar    1  UNL1        0.0540
     22 O         140.1147  142.1371  157.3377 O.3     1  UNL1       -0.4561
     23 C         139.3604  142.9833  156.3553 C.3     1  UNL1        0.2542
     24 O         138.9110  144.7381  161.6720 O.3     1  UNL1       -0.4640
     25 C         138.7852  144.7846  163.1660 C.3     1  UNL1        0.1678
     26 C         137.5213  144.3203  163.8270 C.3     1  UNL1        0.0473
     27 C         139.9233  145.2954  163.9989 C.3     1  UNL1        0.0473
     28 C         141.8448  138.9593  161.4428 C.3     1  UNL1        0.1161
     29 O         140.8066  138.3590  160.5419 O.3     1  UNL1       -0.3820
     30 H         141.2054  137.6459  160.0191 H       1  UNL1        0.2107
     31 C         144.4920  141.5119  162.9350 C.ar    1  UNL1        0.2272
     32 C         143.4537  140.9117  162.0340 C.ar    1  UNL1        0.0559
     33 C         142.8831  139.5595  162.3438 C.ar    1  UNL1        0.0117
     34 C         143.3508  138.8076  163.5545 C.ar    1  UNL1        0.0559
     35 C         144.3891  139.4078  164.4554 C.ar    1  UNL1        0.2272
     36 N         144.9597  140.7600  164.1457 N.ar    1  UNL1       -0.1767
     37 C         144.1945  144.0839  162.7188 C.3     1  UNL1        0.2542
     38 O         145.0626  142.8642  162.6252 O.3     1  UNL1       -0.4561
     39 O         144.8567  138.6558  165.6662 O.3     1  UNL1       -0.4561
     40 C         144.0086  137.8821  166.6316 C.3     1  UNL1        0.2542
     41 C         142.8660  138.0018  160.9040 C.3     1  UNL1        0.0491
     42 C         142.8046  137.5689  159.4691 C.3     1  UNL1        0.0750
     43 N         143.0687  138.5602  158.3747 N.3     1  UNL1       -0.2702
     44 C         143.8240  139.8217  158.6716 C.3     1  UNL1        0.0897
     45 C         142.5774  138.2901  156.9835 C.3     1  UNL1        0.0897
@<TRIPOS>BOND
     1    37    38    1
     2    38    31    1
     3    31    32   ar
     4    32    33   ar
     5    33    28    1
     6    28    29    1
     7    28    41    1
     8    41    42    1
     9    42    43    1
    10    43    44    1
    11    43    45    1
    12    28     1    1
    13     1    16    1
    14    16    17   ar
    15    17    18   ar
    16    18    22    1
    17    22    23    1
    18    18    19   ar
    19    19    20   ar
    20    20    24    1
    21    24    25    1
    22    25    26    1
    23    25    27    1
    24    20    21   ar
    25     1     2    1
    26     2     3   ar
    27     3     4   ar
    28     4     5   ar
    29     5     6   ar
    30     6    12    1
    31    12    13    3
    32     6     7   ar
    33     7     8   ar
    34     8     9   ar
    35     9    10   ar
    36    10    11   ar
    37    11    14    1
    38    14    15    1
    39    33    34   ar
    40    34    35   ar
    41    35    39    1
    42    39    40    1
    43    35    36   ar
    44    36    31   ar
    45    21    16   ar
    46    11     2   ar
    47     9     4   ar
    48    29    30    1
@<TRIPOS>MOLECULE
*****
 45 48 0 0 0
SMALL
GASTEIGER

@<TRIPOS>ATOM
      1 C         141.3549  142.4579  162.4994 C.3     1  UNL1        0.0779
      2 C         141.8390  142.3758  163.9168 C.ar    1  UNL1        0.0373
      3 C         140.9879  141.7195  164.9632 C.ar    1  UNL1        0.0023
      4 C         141.4720  141.6374  166.3806 C.ar    1  UNL1        0.0183
      5 C         140.6209  140.9811  167.4270 C.ar    1  UNL1        0.0118
      6 C         141.1050  140.8991  168.8443 C.ar    1  UNL1        0.0685
      7 C         142.4402  141.4733  169.2153 C.ar    1  UNL1        0.0118
      8 C         143.2912  142.1296  168.1689 C.ar    1  UNL1        0.0199
      9 C         142.8071  142.2117  166.7516 C.ar    1  UNL1        0.0844
     10 N         143.6582  142.8680  165.7052 N.ar    1  UNL1       -0.2119
     11 C         143.1741  142.9501  164.2878 C.ar    1  UNL1        0.2211
     12 C         140.2540  140.2427  169.8908 C.1     1  UNL1        0.1004
     13 N         139.4029  139.5864  170.9371 N.1     1  UNL1       -0.1908
     14 O         144.0252  143.6064  163.2414 O.3     1  UNL1       -0.4563
     15 C         143.9647  145.0929  163.0494 C.3     1  UNL1        0.2542
     16 C         142.2333  141.9869  161.3785 C.ar    1  UNL1       -0.0064
     17 C         142.8502  140.6207  161.4323 C.ar    1  UNL1        0.0540
     18 C         143.7286  140.1496  160.3113 C.ar    1  UNL1        0.2272
     19 N         143.9901  141.0448  159.1365 N.ar    1  UNL1       -0.1767
     20 C         143.3732  142.4111  159.0827 C.ar    1  UNL1        0.2270
     21 C         142.4948  142.8821  160.2036 C.ar    1  UNL1        0.0540
     22 O         144.3454  138.7835  160.3652 O.3     1  UNL1       -0.4561
     23 C         143.9927  137.6702  161.3066 C.3     1  UNL1        0.2542
     24 O         143.6347  143.3063  157.9078 O.3     1  UNL1       -0.4640
     25 C         142.4937  144.0022  157.2266 C.3     1  UNL1        0.1678
     26 C         141.6687  143.2707  156.2096 C.3     1  UNL1        0.0473
     27 C         142.1778  145.4296  157.5623 C.3     1  UNL1        0.0473
     28 C         139.9925  143.0110  162.2030 C.3     1  UNL1        0.1161
     29 O         140.4380  144.3625  162.6774 O.3     1  UNL1       -0.3820
     30 H         139.7033  144.9910  162.5990 H       1  UNL1        0.2107
     31 C         138.6648  140.1189  159.8318 C.ar    1  UNL1        0.2272
     32 C         139.1103  141.4704  160.3062 C.ar    1  UNL1        0.0559
     33 C         139.5470  141.6595  161.7287 C.ar    1  UNL1        0.0117
     34 C         139.5384  140.4972  162.6767 C.ar    1  UNL1        0.0559
     35 C         139.0929  139.1457  162.2023 C.ar    1  UNL1        0.2272
     36 N         138.6561  138.9565  160.7799 N.ar    1  UNL1       -0.1767
     37 C         138.8342  140.7656  157.3212 C.3     1  UNL1        0.2542
     38 O         138.2280  139.9298  158.4093 O.3     1  UNL1       -0.4561
     39 O         139.0842  137.9833  163.1505 O.3     1  UNL1       -0.4561
     40 C         138.8814  138.0316  164.6359 C.3     1  UNL1        0.2542
     41 C         138.6301  143.5641  161.9067 C.3     1  UNL1        0.0491
     42 C         137.8949  144.3479  162.9531 C.3     1  UNL1        0.0750
     43 N         137.9684  143.9310  164.3921 N.3     1  UNL1       -0.2702
     44 C         137.5367  142.5526  164.7966 C.3     1  UNL1        0.0897
     45 C         138.4736  144.8924  165.4267 C.3     1  UNL1        0.0897
@<TRIPOS>BOND
     1    37    38    1
     2    38    31    1
     3    31    32   ar
     4    32    33   ar
     5    33    28    1
     6    28    29    1
     7    28    41    1
     8    41    42    1
     9    42    43    1
    10    43    44    1
    11    43    45    1
    12    28     1    1
    13     1    16    1
    14    16    17   ar
    15    17    18   ar
    16    18    22    1
    17    22    23    1
    18    18    19   ar
    19    19    20   ar
    20    20    24    1
    21    24    25    1
    22    25    26    1
    23    25    27    1
    24    20    21   ar
    25     1     2    1
    26     2     3   ar
    27     3     4   ar
    28     4     5   ar
    29     5     6   ar
    30     6    12    1
    31    12    13    3
    32     6     7   ar
    33     7     8   ar
    34     8     9   ar
    35     9    10   ar
    36    10    11   ar
    37    11    14    1
    38    14    15    1
    39    33    34   ar
    40    34    35   ar
    41    35    39    1
    42    39    40    1
    43    35    36   ar
    44    36    31   ar
    45    21    16   ar
    46    11     2   ar
    47     9     4   ar
    48    29    30    1
@<TRIPOS>MOLECULE
*****
 45 48 0 0 0
SMALL
GASTEIGER

@<TRIPOS>ATOM
      1 C         142.3657  140.3042  163.7506 C.3     1  UNL1        0.0779
      2 C         142.3993  140.2507  165.2493 C.ar    1  UNL1        0.0373
      3 C         141.5016  141.1449  166.0520 C.ar    1  UNL1        0.0023
      4 C         141.5351  141.0914  167.5507 C.ar    1  UNL1        0.0183
      5 C         140.6374  141.9857  168.3534 C.ar    1  UNL1        0.0118
      6 C         140.6710  141.9321  169.8520 C.ar    1  UNL1        0.0685
      7 C         141.6023  140.9843  170.5480 C.ar    1  UNL1        0.0118
      8 C         142.5000  140.0900  169.7453 C.ar    1  UNL1        0.0199
      9 C         142.4664  140.1436  168.2466 C.ar    1  UNL1        0.0844
     10 N         143.3642  139.2493  167.4439 N.ar    1  UNL1       -0.2119
     11 C         143.3306  139.3029  165.9452 C.ar    1  UNL1        0.2211
     12 C         139.7733  142.8264  170.6548 C.1     1  UNL1        0.1004
     13 N         138.8756  143.7206  171.4575 N.1     1  UNL1       -0.1908
     14 O         144.2283  138.4086  165.1424 O.3     1  UNL1       -0.4563
     15 C         145.6637  138.7863  164.9254 C.3     1  UNL1        0.2542
     16 C         142.7134  141.5773  163.0376 C.ar    1  UNL1       -0.0064
     17 C         143.7390  141.5678  161.9431 C.ar    1  UNL1        0.0540
     18 C         144.0868  142.8410  161.2301 C.ar    1  UNL1        0.2272
     19 N         143.4088  144.1235  161.6116 N.ar    1  UNL1       -0.1767
     20 C         142.3831  144.1328  162.7061 C.ar    1  UNL1        0.2270
     21 C         142.0354  142.8598  163.4191 C.ar    1  UNL1        0.0540
     22 O         145.1124  142.8315  160.1356 O.3     1  UNL1       -0.4561
     23 C         144.8777  142.5507  158.6809 C.3     1  UNL1        0.2542
     24 O         141.7051  145.4153  163.0876 O.3     1  UNL1       -0.4640
     25 C         140.2226  145.5613  162.9112 C.3     1  UNL1        0.1678
     26 C         139.2863  145.0054  163.9428 C.3     1  UNL1        0.0473
     27 C         139.6765  146.2631  161.7033 C.3     1  UNL1        0.0473
     28 C         141.9845  139.0846  162.9649 C.3     1  UNL1        0.1161
     29 O         143.4186  138.8907  162.5701 O.3     1  UNL1       -0.3820
     30 H         143.4952  138.1053  162.0060 H       1  UNL1        0.2107
     31 C         138.2619  140.4594  163.0156 C.ar    1  UNL1        0.2272
     32 C         139.6960  140.2654  162.6208 C.ar    1  UNL1        0.0559
     33 C         140.5504  139.2786  163.3597 C.ar    1  UNL1        0.0117
     34 C         139.9708  138.4856  164.4934 C.ar    1  UNL1        0.0559
     35 C         138.5367  138.6796  164.8881 C.ar    1  UNL1        0.2272
     36 N         137.6823  139.6665  164.1493 N.ar    1  UNL1       -0.1767
     37 C         138.0480  142.5396  161.4738 C.3     1  UNL1        0.2542
     38 O         137.4075  141.4463  162.2767 O.3     1  UNL1       -0.4561
     39 O         137.9571  137.8866  166.0219 O.3     1  UNL1       -0.4561
     40 C         137.4916  138.4136  167.3468 C.3     1  UNL1        0.2542
     41 C         141.6033  137.8650  162.1792 C.3     1  UNL1        0.0491
     42 C         142.2205  137.6155  160.8351 C.3     1  UNL1        0.0750
     43 N         141.9854  138.5805  159.7111 N.3     1  UNL1       -0.2702
     44 C         140.5878  138.8650  159.2467 C.3     1  UNL1        0.0897
     45 C         143.1480  139.2611  159.0513 C.3     1  UNL1        0.0897
@<TRIPOS>BOND
     1    37    38    1
     2    38    31    1
     3    31    32   ar
     4    32    33   ar
     5    33    28    1
     6    28    29    1
     7    28    41    1
     8    41    42    1
     9    42    43    1
    10    43    44    1
    11    43    45    1
    12    28     1    1
    13     1    16    1
    14    16    17   ar
    15    17    18   ar
    16    18    22    1
    17    22    23    1
    18    18    19   ar
    19    19    20   ar
    20    20    24    1
    21    24    25    1
    22    25    26    1
    23    25    27    1
    24    20    21   ar
    25     1     2    1
    26     2     3   ar
    27     3     4   ar
    28     4     5   ar
    29     5     6   ar
    30     6    12    1
    31    12    13    3
    32     6     7   ar
    33     7     8   ar
    34     8     9   ar
    35     9    10   ar
    36    10    11   ar
    37    11    14    1
    38    14    15    1
    39    33    34   ar
    40    34    35   ar
    41    35    39    1
    42    39    40    1
    43    35    36   ar
    44    36    31   ar
    45    21    16   ar
    46    11     2   ar
    47     9     4   ar
    48    29    30    1
@<TRIPOS>MOLECULE
*****
 45 48 0 0 0
SMALL
GASTEIGER

@<TRIPOS>ATOM
      1 C         141.3455  142.4438  162.5221 C.3     1  UNL1        0.0779
      2 C         141.8163  142.3557  163.9437 C.ar    1  UNL1        0.0373
      3 C         140.9507  141.7048  164.9814 C.ar    1  UNL1        0.0023
      4 C         141.4215  141.6167  166.4030 C.ar    1  UNL1        0.0183
      5 C         140.5559  140.9658  167.4407 C.ar    1  UNL1        0.0118
      6 C         141.0267  140.8778  168.8622 C.ar    1  UNL1        0.0685
      7 C         142.3631  141.4406  169.2458 C.ar    1  UNL1        0.0118
      8 C         143.2288  142.0915  168.2081 C.ar    1  UNL1        0.0199
      9 C         142.7579  142.1795  166.7866 C.ar    1  UNL1        0.0844
     10 N         143.6236  142.8304  165.7488 N.ar    1  UNL1       -0.2119
     11 C         143.1528  142.9185  164.3273 C.ar    1  UNL1        0.2211
     12 C         140.1611  140.2269  169.9000 C.1     1  UNL1        0.1004
     13 N         139.2955  139.5760  170.9379 N.1     1  UNL1       -0.1908
     14 O         144.0184  143.5694  163.2894 O.3     1  UNL1       -0.4563
     15 C         143.9161  145.0460  163.0463 C.3     1  UNL1        0.2542
     16 C         142.2310  141.9698  161.4081 C.ar    1  UNL1       -0.0064
     17 C         142.8600  140.6098  161.4768 C.ar    1  UNL1        0.0540
     18 C         143.7455  140.1358  160.3627 C.ar    1  UNL1        0.2272
     19 N         144.0021  141.0218  159.1799 N.ar    1  UNL1       -0.1767
     20 C         143.3731  142.3819  159.1112 C.ar    1  UNL1        0.2270
     21 C         142.4876  142.8559  160.2252 C.ar    1  UNL1        0.0540
     22 O         144.3745  138.7758  160.4315 O.3     1  UNL1       -0.4561
     23 C         143.7626  137.5254  160.9905 C.3     1  UNL1        0.2542
     24 O         143.6297  143.2679  157.9283 O.3     1  UNL1       -0.4640
     25 C         142.4826  143.9320  157.2259 C.3     1  UNL1        0.1678
     26 C         142.2147  145.3920  157.4420 C.3     1  UNL1        0.0473
     27 C         141.6036  143.1362  156.3073 C.3     1  UNL1        0.0473
     28 C         139.9892  143.0058  162.2148 C.3     1  UNL1        0.1161
     29 O         140.4430  144.3568  162.6827 O.3     1  UNL1       -0.3820
     30 H         139.7139  144.9907  162.5961 H       1  UNL1        0.2107
     31 C         139.0421  139.1520  162.2389 C.ar    1  UNL1        0.2272
     32 C         139.4959  140.5029  162.7068 C.ar    1  UNL1        0.0559
     33 C         139.5354  141.6549  161.7469 C.ar    1  UNL1        0.0117
     34 C         139.1211  141.4558  160.3190 C.ar    1  UNL1        0.0559
     35 C         138.6673  140.1048  159.8511 C.ar    1  UNL1        0.2272
     36 N         138.6278  138.9529  160.8110 N.ar    1  UNL1       -0.1767
     37 C         138.8429  138.2537  164.6686 C.3     1  UNL1        0.2542
     38 O         139.0026  138.0000  163.1988 O.3     1  UNL1       -0.4561
     39 O         138.2530  139.9058  158.4232 O.3     1  UNL1       -0.4561
     40 C         139.1243  140.0138  157.2071 C.3     1  UNL1        0.2542
     41 C         138.6329  143.5679  161.9074 C.3     1  UNL1        0.0491
     42 C         137.8876  144.3430  162.9532 C.3     1  UNL1        0.0750
     43 N         137.9736  143.9335  164.3937 N.3     1  UNL1       -0.2702
     44 C         138.4709  144.9062  165.4215 C.3     1  UNL1        0.0897
     45 C         137.5624  142.5513  164.8063 C.3     1  UNL1        0.0897
@<TRIPOS>BOND
     1    37    38    1
     2    38    31    1
     3    31    32   ar
     4    32    33   ar
     5    33    28    1
     6    28    29    1
     7    28    41    1
     8    41    42    1
     9    42    43    1
    10    43    44    1
    11    43    45    1
    12    28     1    1
    13     1    16    1
    14    16    17   ar
    15    17    18   ar
    16    18    22    1
    17    22    23    1
    18    18    19   ar
    19    19    20   ar
    20    20    24    1
    21    24    25    1
    22    25    26    1
    23    25    27    1
    24    20    21   ar
    25     1     2    1
    26     2     3   ar
    27     3     4   ar
    28     4     5   ar
    29     5     6   ar
    30     6    12    1
    31    12    13    3
    32     6     7   ar
    33     7     8   ar
    34     8     9   ar
    35     9    10   ar
    36    10    11   ar
    37    11    14    1
    38    14    15    1
    39    33    34   ar
    40    34    35   ar
    41    35    39    1
    42    39    40    1
    43    35    36   ar
    44    36    31   ar
    45    21    16   ar
    46    11     2   ar
    47     9     4   ar
    48    29    30    1
@<TRIPOS>MOLECULE
*****
 45 48 0 0 0
SMALL
GASTEIGER

@<TRIPOS>ATOM
      1 C         141.4114  140.5328  163.2128 C.3     1  UNL1        0.0779
      2 C         141.6321  140.3700  164.6876 C.ar    1  UNL1        0.0373
      3 C         140.8652  141.2177  165.6587 C.ar    1  UNL1        0.0023
      4 C         141.0859  141.0550  167.1335 C.ar    1  UNL1        0.0183
      5 C         140.3190  141.9027  168.1047 C.ar    1  UNL1        0.0118
      6 C         140.5397  141.7399  169.5794 C.ar    1  UNL1        0.0685
      7 C         141.5273  140.7294  170.0829 C.ar    1  UNL1        0.0118
      8 C         142.2942  139.8817  169.1117 C.ar    1  UNL1        0.0199
      9 C         142.0735  140.0445  167.6370 C.ar    1  UNL1        0.0844
     10 N         142.8404  139.1967  166.6657 N.ar    1  UNL1       -0.2119
     11 C         142.6197  139.3595  165.1911 C.ar    1  UNL1        0.2211
     12 C         139.7728  142.5876  170.5506 C.1     1  UNL1        0.1004
     13 N         139.0059  143.4353  171.5218 N.1     1  UNL1       -0.1908
     14 O         143.3866  138.5118  164.2198 O.3     1  UNL1       -0.4563
     15 C         144.7470  138.9439  163.7585 C.3     1  UNL1        0.2542
     16 C         142.3828  141.3285  162.3924 C.ar    1  UNL1       -0.0064
     17 C         142.8385  142.6761  162.8679 C.ar    1  UNL1        0.0540
     18 C         143.8100  143.4719  162.0474 C.ar    1  UNL1        0.2272
     19 N         144.3257  142.9200  160.7515 N.ar    1  UNL1       -0.1767
     20 C         143.8700  141.5722  160.2761 C.ar    1  UNL1        0.2270
     21 C         142.8986  140.7765  161.0965 C.ar    1  UNL1        0.0540
     22 O         144.2656  144.8196  162.5229 O.3     1  UNL1       -0.4561
     23 C         143.8663  145.5114  163.7926 C.3     1  UNL1        0.2542
     24 O         144.3858  141.0203  158.9802 O.3     1  UNL1       -0.4640
     25 C         143.5658  141.1494  157.7307 C.3     1  UNL1        0.1678
     26 C         142.8398  142.4292  157.4391 C.3     1  UNL1        0.0473
     27 C         143.4720  139.9988  156.7730 C.3     1  UNL1        0.0473
     28 C         140.2192  139.8998  162.5585 C.3     1  UNL1        0.1161
     29 O         140.8190  138.5427  162.7785 O.3     1  UNL1       -0.3820
     30 H         140.2215  137.8642  162.4270 H       1  UNL1        0.2107
     31 C         138.3578  143.3348  163.2554 C.ar    1  UNL1        0.2272
     32 C         138.9577  141.9777  163.4754 C.ar    1  UNL1        0.0559
     33 C         139.6194  141.2569  162.3385 C.ar    1  UNL1        0.0117
     34 C         139.6812  141.8932  160.9816 C.ar    1  UNL1        0.0559
     35 C         139.0814  143.2504  160.7616 C.ar    1  UNL1        0.2272
     36 N         138.4197  143.9712  161.8985 N.ar    1  UNL1       -0.1767
     37 C         138.5252  144.8319  165.3722 C.3     1  UNL1        0.2542
     38 O         137.6961  144.0556  164.3924 O.3     1  UNL1       -0.4561
     39 O         139.1433  143.8867  159.4046 O.3     1  UNL1       -0.4561
     40 C         139.2475  143.1855  158.0827 C.3     1  UNL1        0.2542
     41 C         139.0270  139.2668  161.9042 C.3     1  UNL1        0.0491
     42 C         139.2193  138.2339  160.8337 C.3     1  UNL1        0.0750
     43 N         139.9161  138.5984  159.5563 N.3     1  UNL1       -0.2702
     44 C         139.1807  139.3555  158.4905 C.3     1  UNL1        0.0897
     45 C         141.3482  138.2057  159.3447 C.3     1  UNL1        0.0897
@<TRIPOS>BOND
     1    37    38    1
     2    38    31    1
     3    31    32   ar
     4    32    33   ar
     5    33    28    1
     6    28    29    1
     7    28    41    1
     8    41    42    1
     9    42    43    1
    10    43    44    1
    11    43    45    1
    12    28     1    1
    13     1    16    1
    14    16    17   ar
    15    17    18   ar
    16    18    22    1
    17    22    23    1
    18    18    19   ar
    19    19    20   ar
    20    20    24    1
    21    24    25    1
    22    25    26    1
    23    25    27    1
    24    20    21   ar
    25     1     2    1
    26     2     3   ar
    27     3     4   ar
    28     4     5   ar
    29     5     6   ar
    30     6    12    1
    31    12    13    3
    32     6     7   ar
    33     7     8   ar
    34     8     9   ar
    35     9    10   ar
    36    10    11   ar
    37    11    14    1
    38    14    15    1
    39    33    34   ar
    40    34    35   ar
    41    35    39    1
    42    39    40    1
    43    35    36   ar
    44    36    31   ar
    45    21    16   ar
    46    11     2   ar
    47     9     4   ar
    48    29    30    1
