@<TRIPOS>MOLECULE
*****
 24 26 0 0 0
SMALL
GASTEIGER

@<TRIPOS>ATOM
      1 C         144.8922  139.5022  164.1451 C.3     1  UNL1        0.0523
      2 C         143.4608  139.0553  164.1111 C.ar    1  UNL1        0.0656
      3 C         142.8241  138.2169  163.0426 C.ar    1  UNL1        0.0739
      4 C         141.3845  138.0117  163.4107 C.ar    1  UNL1        0.2434
      5 N         141.1315  138.7234  164.7066 N.ar    1  UNL1       -0.1277
      6 N         142.4146  139.3683  165.1395 N.ar    1  UNL1       -0.2308
      7 C         142.6163  140.1833  166.3826 C.ar    1  UNL1        0.0834
      8 C         142.8692  141.6582  166.2796 C.ar    1  UNL1        0.0201
      9 C         143.0709  142.4731  167.5227 C.ar    1  UNL1        0.0138
     10 C         143.0197  141.8131  168.8687 C.ar    1  UNL1        0.0683
     11 CL        143.2214  142.6280  170.1117 Cl      1  UNL1       -0.0814
     12 C         142.7669  140.3382  168.9717 C.ar    1  UNL1        0.0697
     13 CL        142.7157  139.6781  170.3177 Cl      1  UNL1       -0.0813
     14 C         142.5652  139.5232  167.7286 C.ar    1  UNL1        0.0314
     15 O         140.3752  137.2319  162.6213 O.3     1  UNL1       -0.4577
     16 C         139.4553  137.9407  161.6719 C.3     1  UNL1        0.2244
     17 C         138.1665  138.5236  162.1708 C.3     1  UNL1        0.1202
     18 N         138.0832  139.9836  162.5048 N.3     1  UNL1       -0.2672
     19 C         138.0124  141.0017  161.4055 C.3     1  UNL1        0.0898
     20 C         137.9291  142.4616  161.7395 C.3     1  UNL1        0.0897
     21 N         137.9166  142.9035  163.1729 N.3     1  UNL1       -0.2691
     22 C         137.8333  144.3635  163.5069 C.3     1  UNL1        0.0897
     23 C         137.9873  141.8855  164.2722 C.3     1  UNL1        0.0897
     24 C         138.0706  140.4255  163.9382 C.3     1  UNL1        0.0898
@<TRIPOS>BOND
     1     1     2    1
     2     2     3   ar
     3     3     4   ar
     4     4    15    1
     5    15    16    1
     6    16    17    1
     7    17    18    1
     8    18    19    1
     9    19    20    1
    10    20    21    1
    11    21    22    1
    12    21    23    1
    13    23    24    1
    14     4     5   ar
    15     5     6   ar
    16     6     7    1
    17     7     8   ar
    18     8     9   ar
    19     9    10   ar
    20    10    11    1
    21    10    12   ar
    22    12    13    1
    23    12    14   ar
    24     6     2   ar
    25    14     7   ar
    26    24    18    1
@<TRIPOS>MOLECULE
*****
 24 26 0 0 0
SMALL
GASTEIGER

@<TRIPOS>ATOM
      1 C         137.5735  138.3914  166.9439 C.3     1  UNL1        0.0523
      2 C         138.7193  138.4125  165.9761 C.ar    1  UNL1        0.0656
      3 C         138.9315  137.4565  164.8398 C.ar    1  UNL1        0.0739
      4 C         140.1974  137.8465  164.1361 C.ar    1  UNL1        0.2434
      5 N         140.7677  139.0435  164.8374 N.ar    1  UNL1       -0.1277
      6 N         139.8543  139.3934  165.9746 N.ar    1  UNL1       -0.2308
      7 C         140.0426  140.5253  166.9406 C.ar    1  UNL1        0.0834
      8 C         140.1026  141.9376  166.4387 C.ar    1  UNL1        0.0201
      9 C         140.2909  143.0695  167.4048 C.ar    1  UNL1        0.0138
     10 C         140.4193  142.7891  168.8727 C.ar    1  UNL1        0.0683
     11 CL        140.6076  143.9210  169.8388 Cl      1  UNL1       -0.0814
     12 C         140.3593  141.3769  169.3747 C.ar    1  UNL1        0.0697
     13 CL        140.4876  141.0966  170.8427 Cl      1  UNL1       -0.0813
     14 C         140.1709  140.2450  168.4086 C.ar    1  UNL1        0.0314
     15 O         140.7891  137.1600  162.9409 O.3     1  UNL1       -0.4577
     16 C         140.8296  137.8624  161.6162 C.3     1  UNL1        0.2244
     17 C         139.6189  138.5945  161.1181 C.3     1  UNL1        0.1202
     18 N         139.2039  139.8837  161.7630 N.3     1  UNL1       -0.2672
     19 C         140.1646  141.0338  161.8265 C.3     1  UNL1        0.0898
     20 C         139.7496  142.3229  162.4714 C.3     1  UNL1        0.0897
     21 N         138.3738  142.4619  163.0527 N.3     1  UNL1       -0.2691
     22 C         137.9588  143.7511  163.6976 C.3     1  UNL1        0.0897
     23 C         137.4131  141.3117  162.9892 C.3     1  UNL1        0.0897
     24 C         137.8281  140.0226  162.3443 C.3     1  UNL1        0.0898
@<TRIPOS>BOND
     1     1     2    1
     2     2     3   ar
     3     3     4   ar
     4     4    15    1
     5    15    16    1
     6    16    17    1
     7    17    18    1
     8    18    19    1
     9    19    20    1
    10    20    21    1
    11    21    22    1
    12    21    23    1
    13    23    24    1
    14     4     5   ar
    15     5     6   ar
    16     6     7    1
    17     7     8   ar
    18     8     9   ar
    19     9    10   ar
    20    10    11    1
    21    10    12   ar
    22    12    13    1
    23    12    14   ar
    24     6     2   ar
    25    14     7   ar
    26    24    18    1
@<TRIPOS>MOLECULE
*****
 24 26 0 0 0
SMALL
GASTEIGER

@<TRIPOS>ATOM
      1 C         137.5493  138.4339  166.9572 C.3     1  UNL1        0.0523
      2 C         138.7409  138.3821  166.0475 C.ar    1  UNL1        0.0656
      3 C         138.9580  137.4011  164.9338 C.ar    1  UNL1        0.0739
      4 C         140.2758  137.7150  164.2898 C.ar    1  UNL1        0.2434
      5 N         140.8732  138.8901  165.0055 N.ar    1  UNL1       -0.1277
      6 N         139.9246  139.3025  166.0918 N.ar    1  UNL1       -0.2308
      7 C         140.1246  140.4361  167.0536 C.ar    1  UNL1        0.0834
      8 C         140.1857  141.8469  166.5477 C.ar    1  UNL1        0.0201
      9 C         140.3856  142.9804  167.5095 C.ar    1  UNL1        0.0138
     10 C         140.5245  142.7032  168.9771 C.ar    1  UNL1        0.0683
     11 CL        140.7244  143.8368  169.9388 Cl      1  UNL1       -0.0814
     12 C         140.4633  141.2924  169.4830 C.ar    1  UNL1        0.0697
     13 CL        140.6021  141.0152  170.9506 Cl      1  UNL1       -0.0813
     14 C         140.2634  140.1589  168.5212 C.ar    1  UNL1        0.0314
     15 O         140.8887  136.9824  163.1333 O.3     1  UNL1       -0.4577
     16 C         141.3989  137.7460  161.9472 C.3     1  UNL1        0.2244
     17 C         142.8427  138.1466  161.8777 C.3     1  UNL1        0.1202
     18 N         143.3126  139.3842  162.5832 N.3     1  UNL1       -0.2672
     19 C         142.5950  140.6848  162.3742 C.3     1  UNL1        0.0898
     20 C         143.0649  141.9223  163.0797 C.3     1  UNL1        0.0897
     21 N         144.2522  141.8593  163.9941 N.3     1  UNL1       -0.2691
     22 C         144.7220  143.0969  164.6996 C.3     1  UNL1        0.0897
     23 C         144.9697  140.5588  164.2031 C.3     1  UNL1        0.0897
     24 C         144.4999  139.3212  163.4977 C.3     1  UNL1        0.0898
@<TRIPOS>BOND
     1     1     2    1
     2     2     3   ar
     3     3     4   ar
     4     4    15    1
     5    15    16    1
     6    16    17    1
     7    17    18    1
     8    18    19    1
     9    19    20    1
    10    20    21    1
    11    21    22    1
    12    21    23    1
    13    23    24    1
    14     4     5   ar
    15     5     6   ar
    16     6     7    1
    17     7     8   ar
    18     8     9   ar
    19     9    10   ar
    20    10    11    1
    21    10    12   ar
    22    12    13    1
    23    12    14   ar
    24     6     2   ar
    25    14     7   ar
    26    24    18    1
@<TRIPOS>MOLECULE
*****
 24 26 0 0 0
SMALL
GASTEIGER

@<TRIPOS>ATOM
      1 C         138.1817  139.5991  165.1133 C.3     1  UNL1        0.0523
      2 C         138.6198  141.0335  165.1359 C.ar    1  UNL1        0.0656
      3 C         138.0948  142.1297  164.2569 C.ar    1  UNL1        0.0739
      4 C         138.8103  143.3973  164.6192 C.ar    1  UNL1        0.2434
      5 N         139.7776  143.0845  165.7222 N.ar    1  UNL1       -0.1277
      6 N         139.6598  141.6236  166.0416 N.ar    1  UNL1       -0.2308
      7 C         140.4443  140.8829  167.0837 C.ar    1  UNL1        0.0834
      8 C         141.7756  140.2854  166.7363 C.ar    1  UNL1        0.0201
      9 C         142.5601  139.5447  167.7783 C.ar    1  UNL1        0.0138
     10 C         142.0133  139.4015  169.1678 C.ar    1  UNL1        0.0683
     11 CL        142.7978  138.6608  170.2098 Cl      1  UNL1       -0.0814
     12 C         140.6820  139.9990  169.5152 C.ar    1  UNL1        0.0697
     13 CL        140.1352  139.8558  170.9046 Cl      1  UNL1       -0.0813
     14 C         139.8975  140.7397  168.4731 C.ar    1  UNL1        0.0314
     15 O         138.5962  144.7415  163.9891 O.3     1  UNL1       -0.4577
     16 C         139.1618  145.0317  162.6304 C.3     1  UNL1        0.2244
     17 C         140.5621  145.5522  162.4964 C.3     1  UNL1        0.1202
     18 N         141.7249  144.6822  162.8723 N.3     1  UNL1       -0.2672
     19 C         142.8010  145.2154  163.7709 C.3     1  UNL1        0.0898
     20 C         143.9637  144.3454  164.1467 C.3     1  UNL1        0.0897
     21 N         144.0502  142.9421  163.6239 N.3     1  UNL1       -0.2691
     22 C         145.2129  142.0721  163.9997 C.3     1  UNL1        0.0897
     23 C         142.9740  142.4089  162.7253 C.3     1  UNL1        0.0897
     24 C         141.8114  143.2789  162.3495 C.3     1  UNL1        0.0898
@<TRIPOS>BOND
     1     1     2    1
     2     2     3   ar
     3     3     4   ar
     4     4    15    1
     5    15    16    1
     6    16    17    1
     7    17    18    1
     8    18    19    1
     9    19    20    1
    10    20    21    1
    11    21    22    1
    12    21    23    1
    13    23    24    1
    14     4     5   ar
    15     5     6   ar
    16     6     7    1
    17     7     8   ar
    18     8     9   ar
    19     9    10   ar
    20    10    11    1
    21    10    12   ar
    22    12    13    1
    23    12    14   ar
    24     6     2   ar
    25    14     7   ar
    26    24    18    1
@<TRIPOS>MOLECULE
*****
 24 26 0 0 0
SMALL
GASTEIGER

@<TRIPOS>ATOM
      1 C         139.1796  137.8789  164.6649 C.3     1  UNL1        0.0523
      2 C         138.9273  139.3562  164.6024 C.ar    1  UNL1        0.0656
      3 C         138.1142  140.0685  163.5624 C.ar    1  UNL1        0.0739
      4 C         138.1281  141.5330  163.8860 C.ar    1  UNL1        0.2434
      5 N         138.9498  141.7259  165.1261 N.ar    1  UNL1       -0.1277
      6 N         139.4437  140.3806  165.5688 N.ar    1  UNL1       -0.2308
      7 C         140.3031  140.1075  166.7675 C.ar    1  UNL1        0.0834
      8 C         141.7535  139.7694  166.5890 C.ar    1  UNL1        0.0201
      9 C         142.6129  139.4963  167.7877 C.ar    1  UNL1        0.0138
     10 C         142.0219  139.5614  169.1648 C.ar    1  UNL1        0.0683
     11 CL        142.8813  139.2883  170.3635 Cl      1  UNL1       -0.0814
     12 C         140.5715  139.8995  169.3433 C.ar    1  UNL1        0.0697
     13 CL        139.9804  139.9646  170.7204 Cl      1  UNL1       -0.0813
     14 C         139.7121  140.1726  168.1446 C.ar    1  UNL1        0.0314
     15 O         137.4410  142.6148  163.1065 O.3     1  UNL1       -0.4577
     16 C         137.6888  144.0553  163.4438 C.3     1  UNL1        0.2244
     17 C         138.6133  144.8761  162.5945 C.3     1  UNL1        0.1202
     18 N         140.0797  144.5620  162.5624 N.3     1  UNL1       -0.2672
     19 C         140.6190  143.6022  161.5437 C.3     1  UNL1        0.0898
     20 C         142.0854  143.2881  161.5117 C.3     1  UNL1        0.0897
     21 N         143.0124  143.9338  162.4984 N.3     1  UNL1       -0.2691
     22 C         144.4789  143.6197  162.4664 C.3     1  UNL1        0.0897
     23 C         142.4731  144.8936  163.5172 C.3     1  UNL1        0.0897
     24 C         141.0068  145.2077  163.5492 C.3     1  UNL1        0.0898
@<TRIPOS>BOND
     1     1     2    1
     2     2     3   ar
     3     3     4   ar
     4     4    15    1
     5    15    16    1
     6    16    17    1
     7    17    18    1
     8    18    19    1
     9    19    20    1
    10    20    21    1
    11    21    22    1
    12    21    23    1
    13    23    24    1
    14     4     5   ar
    15     5     6   ar
    16     6     7    1
    17     7     8   ar
    18     8     9   ar
    19     9    10   ar
    20    10    11    1
    21    10    12   ar
    22    12    13    1
    23    12    14   ar
    24     6     2   ar
    25    14     7   ar
    26    24    18    1
@<TRIPOS>MOLECULE
*****
 24 26 0 0 0
SMALL
GASTEIGER

@<TRIPOS>ATOM
      1 C         141.3522  137.1696  164.4741 C.3     1  UNL1        0.0523
      2 C         142.2694  138.3383  164.2670 C.ar    1  UNL1        0.0656
      3 C         143.1304  138.5808  163.0628 C.ar    1  UNL1        0.0739
      4 C         143.8797  139.8620  163.2792 C.ar    1  UNL1        0.2434
      5 N         143.4819  140.4114  164.6171 N.ar    1  UNL1       -0.1277
      6 N         142.4867  139.4698  165.2276 N.ar    1  UNL1       -0.2308
      7 C         141.8249  139.6311  166.5640 C.ar    1  UNL1        0.0834
      8 C         140.3527  139.9072  166.6434 C.ar    1  UNL1        0.0201
      9 C         139.6909  140.0686  167.9798 C.ar    1  UNL1        0.0138
     10 C         140.5013  139.9538  169.2368 C.ar    1  UNL1        0.0683
     11 CL        139.8395  140.1152  170.5732 Cl      1  UNL1       -0.0814
     12 C         141.9735  139.6777  169.1574 C.ar    1  UNL1        0.0697
     13 CL        142.7840  139.5629  170.4144 Cl      1  UNL1       -0.0813
     14 C         142.6353  139.5164  167.8210 C.ar    1  UNL1        0.0314
     15 O         144.8556  140.4846  162.3252 O.3     1  UNL1       -0.4577
     16 C         145.2323  141.9289  162.4738 C.3     1  UNL1        0.2244
     17 C         144.4417  142.9871  161.7630 C.3     1  UNL1        0.1202
     18 N         143.1383  143.4607  162.3349 N.3     1  UNL1       -0.2672
     19 C         143.0912  144.7153  163.1556 C.3     1  UNL1        0.0898
     20 C         141.7878  145.1889  163.7274 C.3     1  UNL1        0.0897
     21 N         140.5317  144.4078  163.4785 N.3     1  UNL1       -0.2691
     22 C         139.2283  144.8814  164.0504 C.3     1  UNL1        0.0897
     23 C         140.5788  143.1531  162.6578 C.3     1  UNL1        0.0897
     24 C         141.8822  142.6796  162.0860 C.3     1  UNL1        0.0898
@<TRIPOS>BOND
     1     1     2    1
     2     2     3   ar
     3     3     4   ar
     4     4    15    1
     5    15    16    1
     6    16    17    1
     7    17    18    1
     8    18    19    1
     9    19    20    1
    10    20    21    1
    11    21    22    1
    12    21    23    1
    13    23    24    1
    14     4     5   ar
    15     5     6   ar
    16     6     7    1
    17     7     8   ar
    18     8     9   ar
    19     9    10   ar
    20    10    11    1
    21    10    12   ar
    22    12    13    1
    23    12    14   ar
    24     6     2   ar
    25    14     7   ar
    26    24    18    1
@<TRIPOS>MOLECULE
*****
 24 26 0 0 0
SMALL
GASTEIGER

@<TRIPOS>ATOM
      1 C         143.0640  138.3856  165.9399 C.3     1  UNL1        0.0523
      2 C         141.7555  138.4413  165.2085 C.ar    1  UNL1        0.0656
      3 C         141.3951  137.6520  163.9849 C.ar    1  UNL1        0.0739
      4 C         139.9946  138.0189  163.5925 C.ar    1  UNL1        0.2434
      5 N         139.4895  139.0351  164.5735 N.ar    1  UNL1       -0.1277
      6 N         140.5778  139.2961  165.5723 N.ar    1  UNL1       -0.2308
      7 C         140.5017  140.2453  166.7312 C.ar    1  UNL1        0.0834
      8 C         141.2260  141.5576  166.6746 C.ar    1  UNL1        0.0201
      9 C         141.1499  142.5068  167.8336 C.ar    1  UNL1        0.0138
     10 C         140.3496  142.1437  169.0492 C.ar    1  UNL1        0.0683
     11 CL        140.2735  143.0929  170.2081 Cl      1  UNL1       -0.0814
     12 C         139.6253  140.8314  169.1058 C.ar    1  UNL1        0.0697
     13 CL        138.8249  140.4682  170.3213 Cl      1  UNL1       -0.0813
     14 C         139.7014  139.8822  167.9468 C.ar    1  UNL1        0.0314
     15 O         139.2330  137.4667  162.4242 O.3     1  UNL1       -0.4577
     16 C         138.8615  138.3627  161.2799 C.3     1  UNL1        0.2244
     17 C         137.7251  139.3311  161.4239 C.3     1  UNL1        0.1202
     18 N         138.0044  140.7816  161.6849 N.3     1  UNL1       -0.2672
     19 C         137.4457  141.4446  162.9090 C.3     1  UNL1        0.0898
     20 C         137.7249  142.8950  163.1699 C.3     1  UNL1        0.0897
     21 N         138.5628  143.6826  162.2067 N.3     1  UNL1       -0.2691
     22 C         138.8420  145.1331  162.4677 C.3     1  UNL1        0.0897
     23 C         139.1215  143.0197  160.9827 C.3     1  UNL1        0.0897
     24 C         138.8423  141.5692  160.7218 C.3     1  UNL1        0.0898
@<TRIPOS>BOND
     1     1     2    1
     2     2     3   ar
     3     3     4   ar
     4     4    15    1
     5    15    16    1
     6    16    17    1
     7    17    18    1
     8    18    19    1
     9    19    20    1
    10    20    21    1
    11    21    22    1
    12    21    23    1
    13    23    24    1
    14     4     5   ar
    15     5     6   ar
    16     6     7    1
    17     7     8   ar
    18     8     9   ar
    19     9    10   ar
    20    10    11    1
    21    10    12   ar
    22    12    13    1
    23    12    14   ar
    24     6     2   ar
    25    14     7   ar
    26    24    18    1
@<TRIPOS>MOLECULE
*****
 24 26 0 0 0
SMALL
GASTEIGER

@<TRIPOS>ATOM
      1 C         139.1018  144.4861  164.9290 C.3     1  UNL1        0.0523
      2 C         140.5482  144.1178  164.7790 C.ar    1  UNL1        0.0656
      3 C         141.4960  144.6665  163.7541 C.ar    1  UNL1        0.0739
      4 C         142.8342  144.0240  163.9693 C.ar    1  UNL1        0.2434
      5 N         142.7135  143.0782  165.1272 N.ar    1  UNL1       -0.1277
      6 N         141.3006  143.1361  165.6277 N.ar    1  UNL1       -0.2308
      7 C         140.7389  142.3504  166.7754 C.ar    1  UNL1        0.0834
      8 C         140.3137  140.9263  166.5725 C.ar    1  UNL1        0.0201
      9 C         139.7519  140.1407  167.7202 C.ar    1  UNL1        0.0138
     10 C         139.6153  140.7791  169.0706 C.ar    1  UNL1        0.0683
     11 CL        139.0536  139.9934  170.2183 Cl      1  UNL1       -0.0814
     12 C         140.0405  142.2032  169.2735 C.ar    1  UNL1        0.0697
     13 CL        139.9039  142.8416  170.6240 Cl      1  UNL1       -0.0813
     14 C         140.6023  142.9889  168.1259 C.ar    1  UNL1        0.0314
     15 O         144.0753  144.2820  163.1673 O.3     1  UNL1       -0.4577
     16 C         144.5066  143.3020  162.1167 C.3     1  UNL1        0.2244
     17 C         145.1089  141.9883  162.5185 C.3     1  UNL1        0.1202
     18 N         144.2359  140.9004  163.0702 N.3     1  UNL1       -0.2672
     19 C         144.6985  140.0911  164.2453 C.3     1  UNL1        0.0898
     20 C         143.8256  139.0032  164.7970 C.3     1  UNL1        0.0897
     21 N         142.4900  138.7246  164.1735 N.3     1  UNL1       -0.2691
     22 C         141.6170  137.6366  164.7252 C.3     1  UNL1        0.0897
     23 C         142.0274  139.5339  162.9984 C.3     1  UNL1        0.0897
     24 C         142.9004  140.6218  162.4467 C.3     1  UNL1        0.0898
@<TRIPOS>BOND
     1     1     2    1
     2     2     3   ar
     3     3     4   ar
     4     4    15    1
     5    15    16    1
     6    16    17    1
     7    17    18    1
     8    18    19    1
     9    19    20    1
    10    20    21    1
    11    21    22    1
    12    21    23    1
    13    23    24    1
    14     4     5   ar
    15     5     6   ar
    16     6     7    1
    17     7     8   ar
    18     8     9   ar
    19     9    10   ar
    20    10    11    1
    21    10    12   ar
    22    12    13    1
    23    12    14   ar
    24     6     2   ar
    25    14     7   ar
    26    24    18    1
@<TRIPOS>MOLECULE
*****
 24 26 0 0 0
SMALL
GASTEIGER

@<TRIPOS>ATOM
      1 C         144.8075  143.7102  165.5175 C.3     1  UNL1        0.0523
      2 C         143.4473  143.5999  164.8948 C.ar    1  UNL1        0.0656
      3 C         142.9473  144.3915  163.7230 C.ar    1  UNL1        0.0739
      4 C         141.5393  143.9594  163.4385 C.ar    1  UNL1        0.2434
      5 N         141.1692  142.9007  164.4346 N.ar    1  UNL1       -0.1277
      6 N         142.3484  142.6784  165.3346 N.ar    1  UNL1       -0.2308
      7 C         142.4167  141.7056  166.4743 C.ar    1  UNL1        0.0834
      8 C         142.6543  140.2494  166.2042 C.ar    1  UNL1        0.0201
      9 C         142.7226  139.2766  167.3439 C.ar    1  UNL1        0.0138
     10 C         142.5533  139.7600  168.7538 C.ar    1  UNL1        0.0683
     11 CL        142.6216  138.7872  169.8935 Cl      1  UNL1       -0.0814
     12 C         142.3156  141.2162  169.0239 C.ar    1  UNL1        0.0697
     13 CL        142.1463  141.6996  170.4338 Cl      1  UNL1       -0.0813
     14 C         142.2473  142.1890  167.8842 C.ar    1  UNL1        0.0314
     15 O         140.6565  144.4925  162.3493 O.3     1  UNL1       -0.4577
     16 C         139.3981  145.2307  162.6977 C.3     1  UNL1        0.2244
     17 C         138.1507  144.4691  163.0352 C.3     1  UNL1        0.1202
     18 N         138.0442  143.0133  162.6897 N.3     1  UNL1       -0.2672
     19 C         137.7594  142.0063  163.7643 C.3     1  UNL1        0.0898
     20 C         137.6529  140.5506  163.4188 C.3     1  UNL1        0.0897
     21 N         137.8313  140.1018  161.9987 N.3     1  UNL1       -0.2691
     22 C         137.7249  138.6459  161.6532 C.3     1  UNL1        0.0897
     23 C         138.1162  141.1087  160.9241 C.3     1  UNL1        0.0897
     24 C         138.2226  142.5645  161.2696 C.3     1  UNL1        0.0898
@<TRIPOS>BOND
     1     1     2    1
     2     2     3   ar
     3     3     4   ar
     4     4    15    1
     5    15    16    1
     6    16    17    1
     7    17    18    1
     8    18    19    1
     9    19    20    1
    10    20    21    1
    11    21    22    1
    12    21    23    1
    13    23    24    1
    14     4     5   ar
    15     5     6   ar
    16     6     7    1
    17     7     8   ar
    18     8     9   ar
    19     9    10   ar
    20    10    11    1
    21    10    12   ar
    22    12    13    1
    23    12    14   ar
    24     6     2   ar
    25    14     7   ar
    26    24    18    1
