@<TRIPOS>MOLECULE
*****
 21 23 0 0 0
SMALL
GASTEIGER

@<TRIPOS>ATOM
      1 N         144.0251  144.9742  162.6048 N.3     1  UNL1       -0.3187
      2 C         143.2797  144.2656  163.6967 C.3     1  UNL1        0.0765
      3 C         144.0260  143.4312  164.6951 C.3     1  UNL1        0.0418
      4 C         143.2806  142.7226  165.7869 C.3     1  UNL1        0.0973
      5 N         141.7888  142.8483  165.8805 N.pl3   1  UNL1       -0.2870
      6 C         141.0424  143.6828  164.8821 C.ar    1  UNL1        0.0488
      7 C         139.5506  143.8085  164.9757 C.ar    1  UNL1        0.0146
      8 C         138.8043  144.6429  163.9773 C.ar    1  UNL1        0.0013
      9 C         139.5497  145.3515  162.8854 C.ar    1  UNL1       -0.0002
     10 C         141.0415  145.2258  162.7919 C.ar    1  UNL1       -0.0018
     11 C         141.7878  144.3914  163.7902 C.ar    1  UNL1        0.0055
     12 H         145.0225  144.7794  162.6923 H       1  UNL1        0.1191
     13 H         143.8668  145.9789  162.6818 H       1  UNL1        0.1191
     14 C         141.0434  142.1397  166.9724 C.ar    1  UNL1        0.0525
     15 C         140.5667  140.7328  166.7642 C.ar    1  UNL1        0.0157
     16 C         139.8213  140.0242  167.8561 C.ar    1  UNL1        0.0135
     17 C         139.5526  140.7225  169.1562 C.ar    1  UNL1        0.0683
     18 CL        138.8072  140.0139  170.2481 Cl      1  UNL1       -0.0814
     19 C         140.0293  142.1295  169.3644 C.ar    1  UNL1        0.0694
     20 CL        139.7605  142.8278  170.6644 Cl      1  UNL1       -0.0813
     21 C         140.7747  142.8381  168.2725 C.ar    1  UNL1        0.0271
@<TRIPOS>BOND
     1     2     1    1
     2     2     3    1
     3     3     4    1
     4     4     5    1
     5     5    14    1
     6    14    15   ar
     7    15    16   ar
     8    16    17   ar
     9    17    18    1
    10    17    19   ar
    11    19    20    1
    12    19    21   ar
    13     5     6    1
    14     6     7   ar
    15     7     8   ar
    16     8     9   ar
    17     9    10   ar
    18    10    11   ar
    19    11     2    1
    20    21    14   ar
    21    11     6   ar
    22     1    12    1
    23     1    13    1
@<TRIPOS>MOLECULE
*****
 21 23 0 0 0
SMALL
GASTEIGER

@<TRIPOS>ATOM
      1 N         137.0815  140.7018  161.9578 N.3     1  UNL1       -0.3187
      2 C         137.9175  140.5539  163.1944 C.3     1  UNL1        0.0765
      3 C         138.3092  139.1885  163.6761 C.3     1  UNL1        0.0418
      4 C         139.1452  139.0406  164.9127 C.3     1  UNL1        0.0973
      5 N         139.5895  140.2581  165.6677 N.pl3   1  UNL1       -0.2870
      6 C         139.1978  141.6237  165.1861 C.ar    1  UNL1        0.0488
      7 C         139.6421  142.8413  165.9410 C.ar    1  UNL1        0.0146
      8 C         139.2505  144.2068  165.4594 C.ar    1  UNL1        0.0013
      9 C         138.4145  144.3546  164.2228 C.ar    1  UNL1       -0.0002
     10 C         137.9702  143.1371  163.4678 C.ar    1  UNL1       -0.0018
     11 C         138.3618  141.7716  163.9494 C.ar    1  UNL1        0.0055
     12 H         136.8725  139.7792  161.5764 H       1  UNL1        0.1191
     13 H         137.5931  141.2483  161.2650 H       1  UNL1        0.1191
     14 C         140.4255  140.1103  166.9043 C.ar    1  UNL1        0.0525
     15 C         141.9128  139.9526  166.7898 C.ar    1  UNL1        0.0157
     16 C         142.7488  139.8048  168.0264 C.ar    1  UNL1        0.0135
     17 C         142.0975  139.8145  169.3776 C.ar    1  UNL1        0.0683
     18 CL        142.9335  139.6666  170.6142 Cl      1  UNL1       -0.0814
     19 C         140.6101  139.9721  169.4922 C.ar    1  UNL1        0.0694
     20 CL        139.9589  139.9818  170.8433 Cl      1  UNL1       -0.0813
     21 C         139.7742  140.1200  168.2556 C.ar    1  UNL1        0.0271
@<TRIPOS>BOND
     1     2     1    1
     2     2     3    1
     3     3     4    1
     4     4     5    1
     5     5    14    1
     6    14    15   ar
     7    15    16   ar
     8    16    17   ar
     9    17    18    1
    10    17    19   ar
    11    19    20    1
    12    19    21   ar
    13     5     6    1
    14     6     7   ar
    15     7     8   ar
    16     8     9   ar
    17     9    10   ar
    18    10    11   ar
    19    11     2    1
    20    21    14   ar
    21    11     6   ar
    22     1    12    1
    23     1    13    1
@<TRIPOS>MOLECULE
*****
 21 23 0 0 0
SMALL
GASTEIGER

@<TRIPOS>ATOM
      1 N         146.3499  141.8689  163.0572 N.3     1  UNL1       -0.3187
      2 C         145.0671  141.3871  163.6672 C.3     1  UNL1        0.0765
      3 C         144.9325  139.9568  164.0986 C.3     1  UNL1        0.0418
      4 C         143.6497  139.4749  164.7086 C.3     1  UNL1        0.0973
      5 N         142.5015  140.4234  164.8874 N.pl3   1  UNL1       -0.2870
      6 C         142.6360  141.8537  164.4560 C.ar    1  UNL1        0.0488
      7 C         141.4878  142.8022  164.6348 C.ar    1  UNL1        0.0146
      8 C         141.6224  144.2325  164.2035 C.ar    1  UNL1        0.0013
      9 C         142.9052  144.7143  163.5934 C.ar    1  UNL1       -0.0002
     10 C         144.0535  143.7659  163.4146 C.ar    1  UNL1       -0.0018
     11 C         143.9189  142.3356  163.8460 C.ar    1  UNL1        0.0055
     12 H         147.0159  141.0976  163.0124 H       1  UNL1        0.1191
     13 H         146.7372  142.6198  163.6286 H       1  UNL1        0.1191
     14 C         141.2187  139.9415  165.4975 C.ar    1  UNL1        0.0525
     15 C         140.2833  139.0841  164.6976 C.ar    1  UNL1        0.0157
     16 C         139.0005  138.6022  165.3076 C.ar    1  UNL1        0.0135
     17 C         138.6530  138.9778  166.7176 C.ar    1  UNL1        0.0683
     18 CL        137.3702  138.4960  167.3277 Cl      1  UNL1       -0.0814
     19 C         139.5884  139.8353  167.5176 C.ar    1  UNL1        0.0694
     20 CL        139.2409  140.2109  168.9276 Cl      1  UNL1       -0.0813
     21 C         140.8712  140.3172  166.9075 C.ar    1  UNL1        0.0271
@<TRIPOS>BOND
     1     2     1    1
     2     2     3    1
     3     3     4    1
     4     4     5    1
     5     5    14    1
     6    14    15   ar
     7    15    16   ar
     8    16    17   ar
     9    17    18    1
    10    17    19   ar
    11    19    20    1
    12    19    21   ar
    13     5     6    1
    14     6     7   ar
    15     7     8   ar
    16     8     9   ar
    17     9    10   ar
    18    10    11   ar
    19    11     2    1
    20    21    14   ar
    21    11     6   ar
    22     1    12    1
    23     1    13    1
@<TRIPOS>MOLECULE
*****
 21 23 0 0 0
SMALL
GASTEIGER

@<TRIPOS>ATOM
      1 N         144.0775  145.3796  162.8385 N.3     1  UNL1       -0.3187
      2 C         143.1454  144.3763  163.4504 C.3     1  UNL1        0.0765
      3 C         141.7286  144.7598  163.7595 C.3     1  UNL1        0.0418
      4 C         140.7965  143.7564  164.3715 C.3     1  UNL1        0.0973
      5 N         141.2811  142.3696  164.6743 N.pl3   1  UNL1       -0.2870
      6 C         142.6980  141.9860  164.3651 C.ar    1  UNL1        0.0488
      7 C         143.1827  140.5992  164.6680 C.ar    1  UNL1        0.0146
      8 C         144.5994  140.2157  164.3588 C.ar    1  UNL1        0.0013
      9 C         145.5316  141.2190  163.7469 C.ar    1  UNL1       -0.0002
     10 C         145.0469  142.6059  163.4441 C.ar    1  UNL1       -0.0018
     11 C         143.6301  142.9894  163.7532 C.ar    1  UNL1        0.0055
     12 H         143.5850  146.2623  162.7021 H       1  UNL1        0.1191
     13 H         144.4078  145.0320  161.9383 H       1  UNL1        0.1191
     14 C         140.3490  141.3662  165.2862 C.ar    1  UNL1        0.0525
     15 C         139.4562  140.5395  164.4091 C.ar    1  UNL1        0.0157
     16 C         138.5241  139.5362  165.0210 C.ar    1  UNL1        0.0135
     17 C         138.4848  139.3596  166.5100 C.ar    1  UNL1        0.0683
     18 CL        137.5526  138.3562  167.1219 Cl      1  UNL1       -0.0814
     19 C         139.3776  140.1863  167.3872 C.ar    1  UNL1        0.0694
     20 CL        139.3383  140.0097  168.8762 Cl      1  UNL1       -0.0813
     21 C         140.3097  141.1897  166.7753 C.ar    1  UNL1        0.0271
@<TRIPOS>BOND
     1     2     1    1
     2     2     3    1
     3     3     4    1
     4     4     5    1
     5     5    14    1
     6    14    15   ar
     7    15    16   ar
     8    16    17   ar
     9    17    18    1
    10    17    19   ar
    11    19    20    1
    12    19    21   ar
    13     5     6    1
    14     6     7   ar
    15     7     8   ar
    16     8     9   ar
    17     9    10   ar
    18    10    11   ar
    19    11     2    1
    20    21    14   ar
    21    11     6   ar
    22     1    12    1
    23     1    13    1
@<TRIPOS>MOLECULE
*****
 21 23 0 0 0
SMALL
GASTEIGER

@<TRIPOS>ATOM
      1 N         138.7840  140.0669  170.3347 N.3     1  UNL1       -0.3187
      2 C         139.5902  140.6428  169.2085 C.3     1  UNL1        0.0765
      3 C         140.6065  141.7111  169.4834 C.3     1  UNL1        0.0418
      4 C         141.4128  142.2870  168.3571 C.3     1  UNL1        0.0973
      5 N         141.2026  141.7945  166.9560 N.pl3   1  UNL1       -0.2870
      6 C         140.1862  140.7261  166.6810 C.ar    1  UNL1        0.0488
      7 C         139.9761  140.2336  165.2799 C.ar    1  UNL1        0.0146
      8 C         138.9597  139.1652  165.0050 C.ar    1  UNL1        0.0013
      9 C         138.1535  138.5894  166.1313 C.ar    1  UNL1       -0.0002
     10 C         138.3637  139.0819  167.5324 C.ar    1  UNL1       -0.0018
     11 C         139.3800  140.1502  167.8073 C.ar    1  UNL1        0.0055
     12 H         139.0552  140.5142  171.2104 H       1  UNL1        0.1191
     13 H         138.9562  139.0636  170.3978 H       1  UNL1        0.1191
     14 C         142.0088  142.3703  165.8297 C.ar    1  UNL1        0.0525
     15 C         141.4430  143.4789  164.9926 C.ar    1  UNL1        0.0157
     16 C         142.2492  144.0547  163.8663 C.ar    1  UNL1        0.0135
     17 C         143.6212  143.5220  163.5773 C.ar    1  UNL1        0.0683
     18 CL        144.4275  144.0979  162.4510 Cl      1  UNL1       -0.0814
     19 C         144.1872  142.4134  164.4145 C.ar    1  UNL1        0.0694
     20 CL        145.5593  141.8808  164.1254 Cl      1  UNL1       -0.0813
     21 C         143.3810  141.8376  165.5407 C.ar    1  UNL1        0.0271
@<TRIPOS>BOND
     1     2     1    1
     2     2     3    1
     3     3     4    1
     4     4     5    1
     5     5    14    1
     6    14    15   ar
     7    15    16   ar
     8    16    17   ar
     9    17    18    1
    10    17    19   ar
    11    19    20    1
    12    19    21   ar
    13     5     6    1
    14     6     7   ar
    15     7     8   ar
    16     8     9   ar
    17     9    10   ar
    18    10    11   ar
    19    11     2    1
    20    21    14   ar
    21    11     6   ar
    22     1    12    1
    23     1    13    1
@<TRIPOS>MOLECULE
*****
 21 23 0 0 0
SMALL
GASTEIGER

@<TRIPOS>ATOM
      1 N         137.2848  137.9513  167.3105 N.3     1  UNL1       -0.3187
      2 C         138.2222  138.9881  166.7661 C.3     1  UNL1        0.0765
      3 C         138.4666  139.0765  165.2888 C.3     1  UNL1        0.0418
      4 C         139.4040  140.1133  164.7444 C.3     1  UNL1        0.0973
      5 N         140.0969  141.0617  165.6772 N.pl3   1  UNL1       -0.2870
      6 C         139.8525  140.9733  167.1546 C.ar    1  UNL1        0.0488
      7 C         140.5455  141.9218  168.0875 C.ar    1  UNL1        0.0146
      8 C         140.3011  141.8333  169.5647 C.ar    1  UNL1        0.0013
      9 C         139.3637  140.7965  170.1092 C.ar    1  UNL1       -0.0002
     10 C         138.6708  139.8481  169.1763 C.ar    1  UNL1       -0.0018
     11 C         138.9152  139.9365  167.6990 C.ar    1  UNL1        0.0055
     12 H         136.9063  137.3980  166.5417 H       1  UNL1        0.1191
     13 H         136.5213  138.4105  167.8070 H       1  UNL1        0.1191
     14 C         141.0343  142.0985  165.1328 C.ar    1  UNL1        0.0525
     15 C         140.5011  143.4205  164.6659 C.ar    1  UNL1        0.0157
     16 C         141.4384  144.4573  164.1215 C.ar    1  UNL1        0.0135
     17 C         142.9090  144.1721  164.0440 C.ar    1  UNL1        0.0683
     18 CL        143.8464  145.2089  163.4996 Cl      1  UNL1       -0.0814
     19 C         143.4423  142.8501  164.5109 C.ar    1  UNL1        0.0694
     20 CL        144.9128  142.5649  164.4333 Cl      1  UNL1       -0.0813
     21 C         142.5049  141.8133  165.0553 C.ar    1  UNL1        0.0271
@<TRIPOS>BOND
     1     2     1    1
     2     2     3    1
     3     3     4    1
     4     4     5    1
     5     5    14    1
     6    14    15   ar
     7    15    16   ar
     8    16    17   ar
     9    17    18    1
    10    17    19   ar
    11    19    20    1
    12    19    21   ar
    13     5     6    1
    14     6     7   ar
    15     7     8   ar
    16     8     9   ar
    17     9    10   ar
    18    10    11   ar
    19    11     2    1
    20    21    14   ar
    21    11     6   ar
    22     1    12    1
    23     1    13    1
@<TRIPOS>MOLECULE
*****
 21 23 0 0 0
SMALL
GASTEIGER

@<TRIPOS>ATOM
      1 N         142.7057  138.6971  170.2774 N.3     1  UNL1       -0.3187
      2 C         141.9783  139.5086  169.2466 C.3     1  UNL1        0.0765
      3 C         140.8693  140.4290  169.6623 C.3     1  UNL1        0.0418
      4 C         140.1419  141.2404  168.6315 C.3     1  UNL1        0.0973
      5 N         140.5236  141.1314  167.1850 N.pl3   1  UNL1       -0.2870
      6 C         141.6327  140.2109  166.7692 C.ar    1  UNL1        0.0488
      7 C         142.0143  140.1019  165.3227 C.ar    1  UNL1        0.0146
      8 C         143.1234  139.1815  164.9070 C.ar    1  UNL1        0.0013
      9 C         143.8507  138.3701  165.9378 C.ar    1  UNL1       -0.0002
     10 C         143.4691  138.4791  167.3843 C.ar    1  UNL1       -0.0018
     11 C         142.3600  139.3995  167.8000 C.ar    1  UNL1        0.0055
     12 H         142.3187  138.8943  171.2003 H       1  UNL1        0.1191
     13 H         143.6961  138.9405  170.2649 H       1  UNL1        0.1191
     14 C         139.7962  141.9428  166.1542 C.ar    1  UNL1        0.0525
     15 C         140.0510  143.4168  166.0433 C.ar    1  UNL1        0.0157
     16 C         139.3236  144.2283  165.0125 C.ar    1  UNL1        0.0135
     17 C         138.3415  143.5657  164.0926 C.ar    1  UNL1        0.0683
     18 CL        137.6142  144.3771  163.0618 Cl      1  UNL1       -0.0814
     19 C         138.0867  142.0916  164.2034 C.ar    1  UNL1        0.0694
     20 CL        137.1046  141.4290  163.2834 Cl      1  UNL1       -0.0813
     21 C         138.8141  141.2801  165.2342 C.ar    1  UNL1        0.0271
@<TRIPOS>BOND
     1     2     1    1
     2     2     3    1
     3     3     4    1
     4     4     5    1
     5     5    14    1
     6    14    15   ar
     7    15    16   ar
     8    16    17   ar
     9    17    18    1
    10    17    19   ar
    11    19    20    1
    12    19    21   ar
    13     5     6    1
    14     6     7   ar
    15     7     8   ar
    16     8     9   ar
    17     9    10   ar
    18    10    11   ar
    19    11     2    1
    20    21    14   ar
    21    11     6   ar
    22     1    12    1
    23     1    13    1
@<TRIPOS>MOLECULE
*****
 21 23 0 0 0
SMALL
GASTEIGER

@<TRIPOS>ATOM
      1 N         136.9750  140.6515  162.1549 N.3     1  UNL1       -0.3187
      2 C         137.9416  140.9166  163.2709 C.3     1  UNL1        0.0765
      3 C         138.0009  142.2747  163.9049 C.3     1  UNL1        0.0418
      4 C         138.9674  142.5397  165.0210 C.3     1  UNL1        0.0973
      5 N         139.8747  141.4468  165.5029 N.pl3   1  UNL1       -0.2870
      6 C         139.8154  140.0886  164.8688 C.ar    1  UNL1        0.0488
      7 C         140.7226  138.9957  165.3507 C.ar    1  UNL1        0.0146
      8 C         140.6633  137.6376  164.7166 C.ar    1  UNL1        0.0013
      9 C         139.6967  137.3725  163.6006 C.ar    1  UNL1       -0.0002
     10 C         138.7895  138.4655  163.1187 C.ar    1  UNL1       -0.0018
     11 C         138.8488  139.8235  163.7528 C.ar    1  UNL1        0.0055
     12 H         136.4420  141.4987  161.9582 H       1  UNL1        0.1191
     13 H         136.3369  139.9041  162.4281 H       1  UNL1        0.1191
     14 C         140.8412  141.7119  166.6189 C.ar    1  UNL1        0.0525
     15 C         142.2537  142.1102  166.3090 C.ar    1  UNL1        0.0157
     16 C         143.2203  142.3753  167.4250 C.ar    1  UNL1        0.0135
     17 C         142.7744  142.2421  168.8509 C.ar    1  UNL1        0.0683
     18 CL        143.7409  142.5072  169.9669 Cl      1  UNL1       -0.0814
     19 C         141.3618  141.8437  169.1609 C.ar    1  UNL1        0.0694
     20 CL        140.9159  141.7104  170.5868 Cl      1  UNL1       -0.0813
     21 C         140.3952  141.5786  168.0449 C.ar    1  UNL1        0.0271
@<TRIPOS>BOND
     1     2     1    1
     2     2     3    1
     3     3     4    1
     4     4     5    1
     5     5    14    1
     6    14    15   ar
     7    15    16   ar
     8    16    17   ar
     9    17    18    1
    10    17    19   ar
    11    19    20    1
    12    19    21   ar
    13     5     6    1
    14     6     7   ar
    15     7     8   ar
    16     8     9   ar
    17     9    10   ar
    18    10    11   ar
    19    11     2    1
    20    21    14   ar
    21    11     6   ar
    22     1    12    1
    23     1    13    1
@<TRIPOS>MOLECULE
*****
 21 23 0 0 0
SMALL
GASTEIGER

@<TRIPOS>ATOM
      1 N         141.5487  137.2103  162.0727 N.3     1  UNL1       -0.3187
      2 C         141.2910  138.0261  163.3048 C.3     1  UNL1        0.0765
      3 C         142.2369  137.9497  164.4664 C.3     1  UNL1        0.0418
      4 C         141.9792  138.7655  165.6984 C.3     1  UNL1        0.0973
      5 N         140.7755  139.6578  165.7689 N.pl3   1  UNL1       -0.2870
      6 C         139.8295  139.7343  164.6073 C.ar    1  UNL1        0.0488
      7 C         138.6259  140.6265  164.6778 C.ar    1  UNL1        0.0146
      8 C         137.6799  140.7030  163.5162 C.ar    1  UNL1        0.0013
      9 C         137.9377  139.8871  162.2841 C.ar    1  UNL1       -0.0002
     10 C         139.1413  138.9949  162.2136 C.ar    1  UNL1       -0.0018
     11 C         140.0872  138.9184  163.3752 C.ar    1  UNL1        0.0055
     12 H         142.4028  136.6668  162.1973 H       1  UNL1        0.1191
     13 H         141.6546  137.8308  161.2701 H       1  UNL1        0.1191
     14 C         140.5178  140.4736  167.0010 C.ar    1  UNL1        0.0525
     15 C         141.1668  141.8164  167.1607 C.ar    1  UNL1        0.0157
     16 C         140.9091  142.6323  168.3928 C.ar    1  UNL1        0.0135
     17 C         140.0023  142.1053  169.4651 C.ar    1  UNL1        0.0683
     18 CL        139.7446  142.9211  170.6972 Cl      1  UNL1       -0.0814
     19 C         139.3532  140.7624  169.3055 C.ar    1  UNL1        0.0694
     20 CL        138.4465  140.2354  170.3778 Cl      1  UNL1       -0.0813
     21 C         139.6110  139.9465  168.0734 C.ar    1  UNL1        0.0271
@<TRIPOS>BOND
     1     2     1    1
     2     2     3    1
     3     3     4    1
     4     4     5    1
     5     5    14    1
     6    14    15   ar
     7    15    16   ar
     8    16    17   ar
     9    17    18    1
    10    17    19   ar
    11    19    20    1
    12    19    21   ar
    13     5     6    1
    14     6     7   ar
    15     7     8   ar
    16     8     9   ar
    17     9    10   ar
    18    10    11   ar
    19    11     2    1
    20    21    14   ar
    21    11     6   ar
    22     1    12    1
    23     1    13    1
