@<TRIPOS>MOLECULE
*****
 36 39 0 0 0
SMALL
GASTEIGER

@<TRIPOS>ATOM
      1 N         139.1515  138.5137  160.1881 N.am    1  UNL1       -0.2999
      2 C         140.4705  138.4564  159.4762 C.2     1  UNL1        0.2701
      3 O         141.7460  138.6376  160.2445 O.2     1  UNL1       -0.2706
      4 H         138.3144  138.3948  159.6838 H       1  UNL1        0.1496
      5 N         139.0464  139.0895  163.7618 N.3     1  UNL1       -0.2711
      6 C         138.3974  139.7214  162.5661 C.3     1  UNL1        0.0933
      7 C         139.1080  138.7522  161.6684 C.3     1  UNL1        0.1035
      8 C         139.7569  138.1205  162.8640 C.3     1  UNL1        0.0933
      9 C         138.9158  139.8050  168.2027 C.3     1  UNL1        0.0752
     10 C         139.9263  140.5216  167.3569 C.3     1  UNL1        0.0188
     11 C         139.9698  140.2831  165.8767 C.3     1  UNL1        0.0174
     12 C         139.0028  139.3280  165.2421 C.3     1  UNL1        0.0577
     13 C         137.9923  138.6114  166.0878 C.3     1  UNL1        0.0174
     14 C         137.9487  138.8499  167.5680 C.3     1  UNL1        0.0188
     15 N         138.8721  140.0434  169.6829 N.3     1  UNL1       -0.1846
     16 H         138.0809  140.6628  169.8582 H       1  UNL1        0.1484
     17 C         141.2396  141.2462  171.0789 C.3     1  UNL1        0.1957
     18 S         140.0559  140.6448  170.3809 S.O2    1  UNL1        0.0426
     19 O         140.7837  139.3377  170.2727 O.2     1  UNL1       -0.1575
     20 O         139.3280  141.9519  170.4891 O.2     1  UNL1       -0.1575
     21 C         140.5141  138.2180  157.9959 C.3     1  UNL1        0.2850
     22 N         141.7236  137.5857  157.3733 N.pl3   1  UNL1       -0.2091
     23 H         142.6235  137.8243  157.6933 H       1  UNL1        0.2928
     24 C         141.5618  136.5901  156.2631 C.2     1  UNL1        0.3493
     25 N         140.6369  136.7207  155.0895 N.2     1  UNL1        0.0798
     26 N         140.8001  135.5004  154.2327 N.2     1  UNL1       -0.0381
     27 C         141.8259  134.6155  154.8768 C.2     1  UNL1        0.1169
     28 C         142.3921  133.2836  154.4827 C.3     1  UNL1        0.0759
     29 C         143.4291  132.6252  155.3435 C.2     1  UNL1       -0.0158
     30 C         143.8999  133.2987  156.5984 C.2     1  UNL1        0.0678
     31 C         143.3337  134.6306  156.9925 C.2     1  UNL1        0.0123
     32 C         142.2967  135.2890  156.1316 C.2     1  UNL1        0.1019
     33 C         144.9369  132.6402  157.4593 C.3     1  UNL1        0.4183
     34 F         145.9739  131.9817  158.3201 F       1  UNL1       -0.1659
     35 F         145.3257  131.7541  156.3131 F       1  UNL1       -0.1659
     36 F         144.5481  133.5262  158.6054 F       1  UNL1       -0.1659
@<TRIPOS>BOND
     1    17    18    1
     2    18    19    2
     3    18    20    2
     4    18    15    1
     5     9    15    1
     6     9    10    1
     7    10    11    1
     8    11    12    1
     9    12     5    1
    10     5     6    1
    11     6     7    1
    12     7     1    1
    13     1     2   am
    14     2     3    2
    15     2    21    1
    16    21    22    1
    17    22    24    1
    18    24    25    2
    19    25    26    1
    20    26    27    2
    21    27    28    1
    22    28    29    1
    23    29    30    2
    24    30    33    1
    25    33    34    1
    26    33    35    1
    27    33    36    1
    28    30    31    1
    29    31    32    2
    30     7     8    1
    31    12    13    1
    32    13    14    1
    33    14     9    1
    34     8     5    1
    35    32    24    1
    36    32    27    1
    37    15    16    1
    38     1     4    1
    39    22    23    1
@<TRIPOS>MOLECULE
*****
 36 39 0 0 0
SMALL
GASTEIGER

@<TRIPOS>ATOM
      1 N         141.3112  138.3667  160.1802 N.am    1  UNL1       -0.2999
      2 C         142.5966  138.3792  159.4073 C.2     1  UNL1        0.2701
      3 O         143.8913  138.6630  160.1095 O.2     1  UNL1       -0.2706
      4 H         140.4614  138.1804  159.7193 H       1  UNL1        0.1496
      5 N         141.3338  139.0217  163.7418 N.3     1  UNL1       -0.2711
      6 C         141.4247  139.8685  162.5070 C.3     1  UNL1        0.0933
      7 C         141.3205  138.6379  161.6554 C.3     1  UNL1        0.1035
      8 C         141.2296  137.7912  162.8902 C.3     1  UNL1        0.0933
      9 C         141.3618  139.8355  168.1675 C.3     1  UNL1        0.0752
     10 C         140.0822  139.9460  167.3927 C.3     1  UNL1        0.0188
     11 C         140.0728  139.6748  165.9174 C.3     1  UNL1        0.0174
     12 C         141.3431  139.2929  165.2170 C.3     1  UNL1        0.0577
     13 C         142.6227  139.1824  165.9918 C.3     1  UNL1        0.0174
     14 C         142.6321  139.4536  167.4670 C.3     1  UNL1        0.0188
     15 N         141.3713  140.1067  169.6427 N.3     1  UNL1       -0.1846
     16 H         140.9184  139.3105  170.0914 H       1  UNL1        0.1484
     17 C         140.0519  142.5753  170.7224 C.3     1  UNL1        0.1957
     18 S         140.7115  141.3410  170.1825 S.O2    1  UNL1        0.0426
     19 O         141.7740  142.1872  169.5460 O.2     1  UNL1       -0.1575
     20 O         139.6491  140.4948  170.8191 O.2     1  UNL1       -0.1575
     21 C         142.5873  138.1080  157.9320 C.3     1  UNL1        0.2850
     22 N         143.2940  136.9024  157.3866 N.pl3   1  UNL1       -0.2091
     23 H         144.2523  136.7693  157.5688 H       1  UNL1        0.2928
     24 C         142.5406  135.8999  156.5636 C.2     1  UNL1        0.3493
     25 N         141.4400  136.2058  155.5915 N.2     1  UNL1        0.0798
     26 N         140.9748  134.9103  154.9954 N.2     1  UNL1       -0.0381
     27 C         141.7880  133.8038  155.5990 C.2     1  UNL1        0.1169
     28 C         141.7723  132.3184  155.3913 C.3     1  UNL1        0.0759
     29 C         142.7243  131.4445  156.1528 C.2     1  UNL1       -0.0158
     30 C         143.6921  132.0561  157.1220 C.2     1  UNL1        0.0678
     31 C         143.7078  133.5415  157.3297 C.2     1  UNL1        0.0123
     32 C         142.7557  134.4154  156.5682 C.2     1  UNL1        0.1019
     33 C         144.6441  131.1822  157.8835 C.3     1  UNL1        0.4183
     34 F         145.5962  130.3083  158.6450 F       1  UNL1       -0.1659
     35 F         143.6297  130.0772  157.8838 F       1  UNL1       -0.1659
     36 F         145.6585  132.2871  157.8833 F       1  UNL1       -0.1659
@<TRIPOS>BOND
     1    17    18    1
     2    18    19    2
     3    18    20    2
     4    18    15    1
     5     9    15    1
     6     9    10    1
     7    10    11    1
     8    11    12    1
     9    12     5    1
    10     5     6    1
    11     6     7    1
    12     7     1    1
    13     1     2   am
    14     2     3    2
    15     2    21    1
    16    21    22    1
    17    22    24    1
    18    24    25    2
    19    25    26    1
    20    26    27    2
    21    27    28    1
    22    28    29    1
    23    29    30    2
    24    30    33    1
    25    33    34    1
    26    33    35    1
    27    33    36    1
    28    30    31    1
    29    31    32    2
    30     7     8    1
    31    12    13    1
    32    13    14    1
    33    14     9    1
    34     8     5    1
    35    32    24    1
    36    32    27    1
    37    15    16    1
    38     1     4    1
    39    22    23    1
@<TRIPOS>MOLECULE
*****
 36 39 0 0 0
SMALL
GASTEIGER

@<TRIPOS>ATOM
      1 N         143.8560  139.0470  159.5082 N.am    1  UNL1       -0.2999
      2 C         142.7779  139.3929  158.5243 C.2     1  UNL1        0.2701
      3 O         141.4517  139.8971  159.0113 O.2     1  UNL1       -0.2706
      4 H         144.7264  138.7161  159.1886 H       1  UNL1        0.1496
      5 N         143.2570  139.4290  163.0592 N.3     1  UNL1       -0.2711
      6 C         142.5682  138.7074  161.9389 C.3     1  UNL1        0.0933
      7 C         143.6079  139.2053  160.9790 C.3     1  UNL1        0.1035
      8 C         144.2966  139.9268  162.0993 C.3     1  UNL1        0.0933
      9 C         142.5127  139.9037  167.4717 C.3     1  UNL1        0.0752
     10 C         142.0642  140.9697  166.5165 C.3     1  UNL1        0.0188
     11 C         142.3122  140.8115  165.0457 C.3     1  UNL1        0.0174
     12 C         143.0089  139.5872  164.5300 C.3     1  UNL1        0.0577
     13 C         143.4574  138.5212  165.4852 C.3     1  UNL1        0.0174
     14 C         143.2093  138.6794  166.9560 C.3     1  UNL1        0.0188
     15 N         142.2647  140.0618  168.9426 N.3     1  UNL1       -0.1846
     16 H         142.1747  139.1220  169.3287 H       1  UNL1        0.1484
     17 C         139.8908  141.6242  169.9040 C.3     1  UNL1        0.1957
     18 S         141.0777  140.8430  169.4233 S.O2    1  UNL1        0.0426
     19 O         141.9699  142.0087  169.7317 O.2     1  UNL1       -0.1575
     20 O         140.1855  139.6773  169.1148 O.2     1  UNL1       -0.1575
     21 C         143.0260  139.2347  157.0535 C.3     1  UNL1        0.2850
     22 N         143.5733  137.9440  156.5198 N.pl3   1  UNL1       -0.2091
     23 H         144.5452  137.7873  156.5121 H       1  UNL1        0.2928
     24 C         142.6398  136.8923  155.9978 C.2     1  UNL1        0.3493
     25 N         141.3881  137.1376  155.2086 N.2     1  UNL1        0.0798
     26 N         140.7688  135.8075  154.8965 N.2     1  UNL1       -0.0381
     27 C         141.6379  134.7402  155.4929 C.2     1  UNL1        0.1169
     28 C         141.5256  133.2445  155.5041 C.3     1  UNL1        0.0759
     29 C         142.5697  132.4192  156.1960 C.2     1  UNL1       -0.0158
     30 C         143.7261  133.0897  156.8767 C.2     1  UNL1        0.0678
     31 C         143.8383  134.5854  156.8655 C.2     1  UNL1        0.0123
     32 C         142.7942  135.4106  156.1736 C.2     1  UNL1        0.1019
     33 C         144.7702  132.2644  157.5686 C.3     1  UNL1        0.4183
     34 F         145.8143  131.4390  158.2605 F       1  UNL1       -0.1659
     35 F         144.7802  133.2354  158.7119 F       1  UNL1       -0.1659
     36 F         144.7602  131.2933  156.4254 F       1  UNL1       -0.1659
@<TRIPOS>BOND
     1    17    18    1
     2    18    19    2
     3    18    20    2
     4    18    15    1
     5     9    15    1
     6     9    10    1
     7    10    11    1
     8    11    12    1
     9    12     5    1
    10     5     6    1
    11     6     7    1
    12     7     1    1
    13     1     2   am
    14     2     3    2
    15     2    21    1
    16    21    22    1
    17    22    24    1
    18    24    25    2
    19    25    26    1
    20    26    27    2
    21    27    28    1
    22    28    29    1
    23    29    30    2
    24    30    33    1
    25    33    34    1
    26    33    35    1
    27    33    36    1
    28    30    31    1
    29    31    32    2
    30     7     8    1
    31    12    13    1
    32    13    14    1
    33    14     9    1
    34     8     5    1
    35    32    24    1
    36    32    27    1
    37    15    16    1
    38     1     4    1
    39    22    23    1
@<TRIPOS>MOLECULE
*****
 36 39 0 0 0
SMALL
GASTEIGER

@<TRIPOS>ATOM
      1 N         139.9095  139.7540  159.8550 N.am    1  UNL1       -0.2999
      2 C         138.6941  139.8580  158.9821 C.2     1  UNL1        0.2701
      3 O         137.3324  139.9657  159.6020 O.2     1  UNL1       -0.2706
      4 H         140.8032  139.6833  159.4481 H       1  UNL1        0.1496
      5 N         139.5564  139.7625  163.4591 N.3     1  UNL1       -0.2711
      6 C         140.1221  138.8065  162.4510 C.3     1  UNL1        0.0933
      7 C         139.7632  139.7575  161.3478 C.3     1  UNL1        0.1035
      8 C         139.1976  140.7134  162.3559 C.3     1  UNL1        0.0933
      9 C         139.1175  139.7732  167.9376 C.3     1  UNL1        0.0752
     10 C         138.1570  138.9910  167.0918 C.3     1  UNL1        0.0188
     11 C         138.3033  138.9874  165.5989 C.3     1  UNL1        0.0174
     12 C         139.4101  139.7661  164.9519 C.3     1  UNL1        0.0577
     13 C         140.3706  140.5484  165.7977 C.3     1  UNL1        0.0174
     14 C         140.2243  140.5520  167.2905 C.3     1  UNL1        0.0188
     15 N         138.9714  139.7769  169.4304 N.3     1  UNL1       -0.1846
     16 H         138.0692  140.2058  169.6369 H       1  UNL1        0.1484
     17 C         141.0060  141.1771  171.1334 C.3     1  UNL1        0.1957
     18 S         139.9887  140.4770  170.2819 S.O2    1  UNL1        0.0426
     19 O         139.0729  141.6586  170.4045 O.2     1  UNL1       -0.1575
     20 O         140.9046  139.2954  170.1593 O.2     1  UNL1       -0.1575
     21 C         138.8404  139.8545  157.4893 C.3     1  UNL1        0.2850
     22 N         139.4424  138.6674  156.7975 N.pl3   1  UNL1       -0.2091
     23 H         138.8921  137.8712  156.6174 H       1  UNL1        0.2928
     24 C         140.8829  138.6934  156.3801 C.2     1  UNL1        0.3493
     25 N         141.7037  139.9219  156.1211 N.2     1  UNL1        0.0798
     26 N         143.0836  139.4833  155.7294 N.2     1  UNL1       -0.0381
     27 C         143.1156  137.9837  155.7462 C.2     1  UNL1        0.1169
     28 C         144.2076  136.9997  155.4472 C.3     1  UNL1        0.0759
     29 C         143.9393  135.5275  155.5505 C.2     1  UNL1       -0.0158
     30 C         142.5792  135.0394  155.9527 C.2     1  UNL1        0.0678
     31 C         141.4873  136.0234  156.2516 C.2     1  UNL1        0.0123
     32 C         141.7555  137.4956  156.1484 C.2     1  UNL1        0.1019
     33 C         142.3110  133.5671  156.0559 C.3     1  UNL1        0.4183
     34 F         142.0428  132.0949  156.1591 F       1  UNL1       -0.1659
     35 F         143.6042  133.3832  156.7934 F       1  UNL1       -0.1659
     36 F         141.0179  133.7510  155.3184 F       1  UNL1       -0.1659
@<TRIPOS>BOND
     1    17    18    1
     2    18    19    2
     3    18    20    2
     4    18    15    1
     5     9    15    1
     6     9    10    1
     7    10    11    1
     8    11    12    1
     9    12     5    1
    10     5     6    1
    11     6     7    1
    12     7     1    1
    13     1     2   am
    14     2     3    2
    15     2    21    1
    16    21    22    1
    17    22    24    1
    18    24    25    2
    19    25    26    1
    20    26    27    2
    21    27    28    1
    22    28    29    1
    23    29    30    2
    24    30    33    1
    25    33    34    1
    26    33    35    1
    27    33    36    1
    28    30    31    1
    29    31    32    2
    30     7     8    1
    31    12    13    1
    32    13    14    1
    33    14     9    1
    34     8     5    1
    35    32    24    1
    36    32    27    1
    37    15    16    1
    38     1     4    1
    39    22    23    1
@<TRIPOS>MOLECULE
*****
 36 39 0 0 0
SMALL
GASTEIGER

@<TRIPOS>ATOM
      1 N         142.9347  144.1875  161.4171 N.am    1  UNL1       -0.2999
      2 C         142.4781  144.5360  162.8028 C.2     1  UNL1        0.2701
      3 O         141.0527  144.2984  163.2049 O.2     1  UNL1       -0.2706
      4 H         143.8702  144.3434  161.1533 H       1  UNL1        0.1496
      5 N         140.5952  142.7725  159.0425 N.3     1  UNL1       -0.2711
      6 C         140.8878  144.1539  159.5486 C.3     1  UNL1        0.0933
      7 C         141.9656  143.6014  160.4335 C.3     1  UNL1        0.1035
      8 C         141.6730  142.2200  159.9273 C.3     1  UNL1        0.0933
      9 C         137.6882  141.0141  156.0916 C.3     1  UNL1        0.0752
     10 C         138.9525  141.6587  155.6058 C.3     1  UNL1        0.0188
     11 C         139.9215  142.2448  156.5894 C.3     1  UNL1        0.0174
     12 C         139.6262  142.1864  158.0588 C.3     1  UNL1        0.0577
     13 C         138.3619  141.5419  158.5447 C.3     1  UNL1        0.0174
     14 C         137.3929  140.9558  157.5612 C.3     1  UNL1        0.0188
     15 N         136.7191  140.4280  155.1082 N.3     1  UNL1       -0.1846
     16 H         136.9556  140.8159  154.1949 H       1  UNL1        0.1484
     17 C         133.7705  140.8335  155.4842 C.3     1  UNL1        0.1957
     18 S         135.2448  140.6307  155.2962 S.O2    1  UNL1        0.0426
     19 O         135.4181  142.1030  155.0674 O.2     1  UNL1       -0.1575
     20 O         135.0715  139.1585  155.5250 O.2     1  UNL1       -0.1575
     21 C         143.4472  145.1221  163.7864 C.3     1  UNL1        0.2850
     22 N         144.1896  144.2259  164.7328 N.pl3   1  UNL1       -0.2091
     23 H         144.5072  144.5767  165.5962 H       1  UNL1        0.2928
     24 C         144.4482  142.7952  164.3638 C.2     1  UNL1        0.3493
     25 N         145.2880  142.3186  163.2160 N.2     1  UNL1        0.0798
     26 N         145.2712  140.8187  163.2207 N.2     1  UNL1       -0.0381
     27 C         144.4210  140.3683  164.3715 C.2     1  UNL1        0.1169
     28 C         144.0443  139.0037  164.8673 C.3     1  UNL1        0.0759
     29 C         143.1590  138.8606  166.0696 C.2     1  UNL1       -0.0158
     30 C         142.6503  140.0821  166.7761 C.2     1  UNL1        0.0678
     31 C         143.0270  141.4467  166.2803 C.2     1  UNL1        0.0123
     32 C         143.9124  141.5898  165.0780 C.2     1  UNL1        0.1019
     33 C         141.7649  139.9389  167.9785 C.3     1  UNL1        0.4183
     34 F         140.8796  139.7958  169.1809 F       1  UNL1       -0.1659
     35 F         140.5559  139.9620  167.0910 F       1  UNL1       -0.1659
     36 F         142.9740  139.9159  168.8660 F       1  UNL1       -0.1659
@<TRIPOS>BOND
     1    17    18    1
     2    18    19    2
     3    18    20    2
     4    18    15    1
     5     9    15    1
     6     9    10    1
     7    10    11    1
     8    11    12    1
     9    12     5    1
    10     5     6    1
    11     6     7    1
    12     7     1    1
    13     1     2   am
    14     2     3    2
    15     2    21    1
    16    21    22    1
    17    22    24    1
    18    24    25    2
    19    25    26    1
    20    26    27    2
    21    27    28    1
    22    28    29    1
    23    29    30    2
    24    30    33    1
    25    33    34    1
    26    33    35    1
    27    33    36    1
    28    30    31    1
    29    31    32    2
    30     7     8    1
    31    12    13    1
    32    13    14    1
    33    14     9    1
    34     8     5    1
    35    32    24    1
    36    32    27    1
    37    15    16    1
    38     1     4    1
    39    22    23    1
@<TRIPOS>MOLECULE
*****
 36 39 0 0 0
SMALL
GASTEIGER

@<TRIPOS>ATOM
      1 N         143.0591  140.6506  158.1574 N.am    1  UNL1       -0.2999
      2 C         143.6512  140.9922  159.4926 C.2     1  UNL1        0.2701
      3 O         144.1021  139.8987  160.4150 O.2     1  UNL1       -0.2706
      4 H         142.7631  141.3683  157.5520 H       1  UNL1        0.1496
      5 N         142.7180  137.1857  157.1613 N.3     1  UNL1       -0.2711
      6 C         142.3817  137.9732  158.3928 C.3     1  UNL1        0.0933
      7 C         142.9178  139.2154  157.7448 C.3     1  UNL1        0.1035
      8 C         143.2540  138.4278  156.5133 C.3     1  UNL1        0.0933
      9 C         142.2942  132.8801  155.9234 C.3     1  UNL1        0.0752
     10 C         141.4245  133.9296  155.2972 C.3     1  UNL1        0.0188
     11 C         141.5657  135.3648  155.7099 C.3     1  UNL1        0.0174
     12 C         142.5767  135.7505  156.7487 C.3     1  UNL1        0.0577
     13 C         143.4464  134.7010  157.3748 C.3     1  UNL1        0.0174
     14 C         143.3052  133.2659  156.9622 C.3     1  UNL1        0.0188
     15 N         142.1530  131.4449  155.5108 N.3     1  UNL1       -0.1846
     16 H         141.7324  130.9521  156.2986 H       1  UNL1        0.1484
     17 C         144.5755  129.8723  154.6992 C.3     1  UNL1        0.1957
     18 S         143.3643  130.6586  155.1050 S.O2    1  UNL1        0.0426
     19 O         143.2430  129.8297  156.3492 O.2     1  UNL1       -0.1575
     20 O         143.4856  131.4875  153.8607 O.2     1  UNL1       -0.1575
     21 C         143.7925  142.4274  159.9052 C.3     1  UNL1        0.2850
     22 N         144.8928  142.8342  160.8401 N.pl3   1  UNL1       -0.2091
     23 H         145.6106  143.4302  160.5259 H       1  UNL1        0.2928
     24 C         144.8994  142.3328  162.2539 C.2     1  UNL1        0.3493
     25 N         145.9479  141.4578  162.8741 N.2     1  UNL1        0.0798
     26 N         145.5551  141.2027  164.2991 N.2     1  UNL1       -0.0381
     27 C         144.2638  141.9201  164.5596 C.2     1  UNL1        0.1169
     28 C         143.4046  142.0276  165.7844 C.3     1  UNL1        0.0759
     29 C         142.1402  142.8336  165.7452 C.2     1  UNL1       -0.0158
     30 C         141.7350  143.5321  164.4811 C.2     1  UNL1        0.0678
     31 C         142.5941  143.4246  163.2563 C.2     1  UNL1        0.0123
     32 C         143.8585  142.6186  163.2955 C.2     1  UNL1        0.1019
     33 C         140.4704  144.3381  164.4419 C.3     1  UNL1        0.4183
     34 F         139.2060  145.1441  164.4027 F       1  UNL1       -0.1659
     35 F         139.7751  143.2869  165.2552 F       1  UNL1       -0.1659
     36 F         141.1658  145.3893  163.6286 F       1  UNL1       -0.1659
@<TRIPOS>BOND
     1    17    18    1
     2    18    19    2
     3    18    20    2
     4    18    15    1
     5     9    15    1
     6     9    10    1
     7    10    11    1
     8    11    12    1
     9    12     5    1
    10     5     6    1
    11     6     7    1
    12     7     1    1
    13     1     2   am
    14     2     3    2
    15     2    21    1
    16    21    22    1
    17    22    24    1
    18    24    25    2
    19    25    26    1
    20    26    27    2
    21    27    28    1
    22    28    29    1
    23    29    30    2
    24    30    33    1
    25    33    34    1
    26    33    35    1
    27    33    36    1
    28    30    31    1
    29    31    32    2
    30     7     8    1
    31    12    13    1
    32    13    14    1
    33    14     9    1
    34     8     5    1
    35    32    24    1
    36    32    27    1
    37    15    16    1
    38     1     4    1
    39    22    23    1
@<TRIPOS>MOLECULE
*****
 36 39 0 0 0
SMALL
GASTEIGER

@<TRIPOS>ATOM
      1 N         142.9640  140.3272  166.2601 N.am    1  UNL1       -0.2999
      2 C         142.8497  141.7478  166.7277 C.2     1  UNL1        0.2701
      3 O         142.7908  142.8642  165.7276 O.2     1  UNL1       -0.2706
      4 H         143.0026  139.5945  166.9165 H       1  UNL1        0.1496
      5 N         143.0976  139.5927  162.7166 N.3     1  UNL1       -0.2711
      6 C         142.0549  140.1346  163.6488 C.3     1  UNL1        0.0933
      7 C         143.0193  140.0229  164.7923 C.3     1  UNL1        0.1035
      8 C         144.0619  139.4811  163.8600 C.3     1  UNL1        0.0933
      9 C         143.2637  138.6799  158.3132 C.3     1  UNL1        0.0752
     10 C         143.6114  140.0525  158.8083 C.3     1  UNL1        0.0188
     11 C         143.5560  140.3567  160.2761 C.3     1  UNL1        0.0174
     12 C         143.1529  139.2884  161.2488 C.3     1  UNL1        0.0577
     13 C         142.8052  137.9158  160.7537 C.3     1  UNL1        0.0174
     14 C         142.8606  137.6116  159.2860 C.3     1  UNL1        0.0188
     15 N         143.3190  138.3756  156.8455 N.3     1  UNL1       -0.1846
     16 H         142.9198  139.1804  156.3626 H       1  UNL1        0.1484
     17 C         141.9350  135.9431  155.7648 C.3     1  UNL1        0.1957
     18 S         142.6270  137.1593  156.3052 S.O2    1  UNL1        0.0426
     19 O         143.9419  136.4407  156.2387 O.2     1  UNL1       -0.1575
     20 O         141.3120  137.8780  156.3717 O.2     1  UNL1       -0.1575
     21 C         142.7943  142.0521  168.1955 C.3     1  UNL1        0.2850
     22 N         141.5012  142.4791  168.8247 N.pl3   1  UNL1       -0.2091
     23 H         141.3315  143.4324  169.0024 H       1  UNL1        0.2928
     24 C         140.4669  141.4536  169.1830 C.2     1  UNL1        0.3493
     25 N         140.0802  141.0392  170.5718 N.2     1  UNL1        0.0798
     26 N         139.0119  139.9920  170.4625 N.2     1  UNL1       -0.0381
     27 C         138.7383  139.7591  169.0062 C.2     1  UNL1        0.1169
     28 C         137.7866  138.8411  168.2980 C.3     1  UNL1        0.0759
     29 C         137.7340  138.8266  166.7991 C.2     1  UNL1       -0.0158
     30 C         138.6332  139.7299  166.0083 C.2     1  UNL1        0.0678
     31 C         139.5850  140.6479  166.7164 C.2     1  UNL1        0.0123
     32 C         139.6375  140.6624  168.2154 C.2     1  UNL1        0.1019
     33 C         138.5806  139.7153  164.5092 C.3     1  UNL1        0.4183
     34 F         138.5281  139.7008  163.0102 F       1  UNL1       -0.1659
     35 F         138.5176  138.2168  164.5259 F       1  UNL1       -0.1659
     36 F         138.6437  141.2139  164.4924 F       1  UNL1       -0.1659
@<TRIPOS>BOND
     1    17    18    1
     2    18    19    2
     3    18    20    2
     4    18    15    1
     5     9    15    1
     6     9    10    1
     7    10    11    1
     8    11    12    1
     9    12     5    1
    10     5     6    1
    11     6     7    1
    12     7     1    1
    13     1     2   am
    14     2     3    2
    15     2    21    1
    16    21    22    1
    17    22    24    1
    18    24    25    2
    19    25    26    1
    20    26    27    2
    21    27    28    1
    22    28    29    1
    23    29    30    2
    24    30    33    1
    25    33    34    1
    26    33    35    1
    27    33    36    1
    28    30    31    1
    29    31    32    2
    30     7     8    1
    31    12    13    1
    32    13    14    1
    33    14     9    1
    34     8     5    1
    35    32    24    1
    36    32    27    1
    37    15    16    1
    38     1     4    1
    39    22    23    1
@<TRIPOS>MOLECULE
*****
 36 39 0 0 0
SMALL
GASTEIGER

@<TRIPOS>ATOM
      1 N         140.4634  145.4038  160.7160 N.am    1  UNL1       -0.2999
      2 C         140.7867  144.7881  159.3870 C.2     1  UNL1        0.2701
      3 O         140.9646  143.3031  159.2717 O.2     1  UNL1       -0.2706
      4 H         140.3467  146.3784  160.7917 H       1  UNL1        0.1496
      5 N         140.1125  143.3050  163.6463 N.3     1  UNL1       -0.2711
      6 C         141.2709  143.8565  162.8693 C.3     1  UNL1        0.0933
      7 C         140.3180  144.5344  161.9298 C.3     1  UNL1        0.1035
      8 C         139.1596  143.9829  162.7068 C.3     1  UNL1        0.0933
      9 C         139.6762  140.6971  167.2875 C.3     1  UNL1        0.0752
     10 C         140.1897  142.0995  167.4266 C.3     1  UNL1        0.0188
     11 C         140.3352  142.9688  166.2129 C.3     1  UNL1        0.0174
     12 C         139.9670  142.4357  164.8600 C.3     1  UNL1        0.0577
     13 C         139.4535  141.0333  164.7209 C.3     1  UNL1        0.0174
     14 C         139.3080  140.1640  165.9345 C.3     1  UNL1        0.0188
     15 N         139.5307  139.8277  168.5011 N.3     1  UNL1       -0.1846
     16 H         138.5302  139.7187  168.6671 H       1  UNL1        0.1484
     17 C         140.7539  140.6727  171.1069 C.3     1  UNL1        0.1957
     18 S         140.1423  140.2502  169.8040 S.O2    1  UNL1        0.0426
     19 O         141.4910  139.8160  169.3117 O.2     1  UNL1       -0.1575
     20 O         138.7936  140.6845  170.2964 O.2     1  UNL1       -0.1575
     21 C         140.9322  145.6574  158.1733 C.3     1  UNL1        0.2850
     22 N         139.9383  145.5555  157.0543 N.pl3   1  UNL1       -0.2091
     23 H         139.0152  145.2683  157.2404 H       1  UNL1        0.2928
     24 C         140.3509  145.8913  155.6518 C.2     1  UNL1        0.3493
     25 N         141.0673  144.9787  154.7011 N.2     1  UNL1        0.0798
     26 N         141.2787  145.7221  153.4156 N.2     1  UNL1       -0.0381
     27 C         140.6929  147.0941  153.5717 C.2     1  UNL1        0.1169
     28 C         140.6076  148.2617  152.6340 C.3     1  UNL1        0.0759
     29 C         139.9488  149.5339  153.0783 C.2     1  UNL1       -0.0158
     30 C         139.3754  149.6385  154.4604 C.2     1  UNL1        0.0678
     31 C         139.4607  148.4709  155.3982 C.2     1  UNL1        0.0123
     32 C         140.1195  147.1987  154.9538 C.2     1  UNL1        0.1019
     33 C         138.7166  150.9108  154.9048 C.3     1  UNL1        0.4183
     34 F         138.0578  152.1829  155.3491 F       1  UNL1       -0.1659
     35 F         139.4090  151.6546  153.8015 F       1  UNL1       -0.1659
     36 F         138.0242  150.1669  156.0080 F       1  UNL1       -0.1659
@<TRIPOS>BOND
     1    17    18    1
     2    18    19    2
     3    18    20    2
     4    18    15    1
     5     9    15    1
     6     9    10    1
     7    10    11    1
     8    11    12    1
     9    12     5    1
    10     5     6    1
    11     6     7    1
    12     7     1    1
    13     1     2   am
    14     2     3    2
    15     2    21    1
    16    21    22    1
    17    22    24    1
    18    24    25    2
    19    25    26    1
    20    26    27    2
    21    27    28    1
    22    28    29    1
    23    29    30    2
    24    30    33    1
    25    33    34    1
    26    33    35    1
    27    33    36    1
    28    30    31    1
    29    31    32    2
    30     7     8    1
    31    12    13    1
    32    13    14    1
    33    14     9    1
    34     8     5    1
    35    32    24    1
    36    32    27    1
    37    15    16    1
    38     1     4    1
    39    22    23    1
@<TRIPOS>MOLECULE
*****
 36 39 0 0 0
SMALL
GASTEIGER

@<TRIPOS>ATOM
      1 N         143.0454  139.7901  157.7343 N.am    1  UNL1       -0.2999
      2 C         143.7327  140.1298  159.0235 C.2     1  UNL1        0.2701
      3 O         144.2362  139.0347  159.9163 O.2     1  UNL1       -0.2706
      4 H         142.7149  140.5089  157.1484 H       1  UNL1        0.1496
      5 N         142.6016  136.3258  156.7774 N.3     1  UNL1       -0.2711
      6 C         142.0990  137.1900  157.8957 C.3     1  UNL1        0.0933
      7 C         142.8616  138.3552  157.3379 C.3     1  UNL1        0.1035
      8 C         143.3641  137.4909  156.2197 C.3     1  UNL1        0.0933
      9 C         142.0501  132.0209  155.5882 C.3     1  UNL1        0.0752
     10 C         141.2870  133.0991  154.8774 C.3     1  UNL1        0.0188
     11 C         141.4708  134.5340  155.2738 C.3     1  UNL1        0.0174
     12 C         142.4177  134.8908  156.3810 C.3     1  UNL1        0.0577
     13 C         143.1809  133.8127  157.0918 C.3     1  UNL1        0.0174
     14 C         142.9971  132.3779  156.6955 C.3     1  UNL1        0.0188
     15 N         141.8664  130.5860  155.1919 N.3     1  UNL1       -0.1846
     16 H         142.7133  130.0920  155.4734 H       1  UNL1        0.1484
     17 C         141.3630  129.8754  152.3210 C.3     1  UNL1        0.1957
     18 S         141.6147  130.2307  153.7564 S.O2    1  UNL1        0.0426
     19 O         140.1752  129.9565  154.0768 O.2     1  UNL1       -0.1575
     20 O         143.0542  130.5050  153.4361 O.2     1  UNL1       -0.1575
     21 C         143.9165  141.5648  159.4199 C.3     1  UNL1        0.2850
     22 N         143.5096  142.0227  160.7892 N.pl3   1  UNL1       -0.2091
     23 H         142.7960  142.6932  160.8922 H       1  UNL1        0.2928
     24 C         144.1898  141.4590  162.0015 C.2     1  UNL1        0.3493
     25 N         145.5669  141.8087  162.4823 N.2     1  UNL1        0.0798
     26 N         145.8404  141.0125  163.7238 N.2     1  UNL1       -0.0381
     27 C         144.6323  140.1708  164.0103 C.2     1  UNL1        0.1169
     28 C         144.3295  139.1887  165.1028 C.3     1  UNL1        0.0759
     29 C         143.0064  138.4826  165.1309 C.2     1  UNL1       -0.0158
     30 C         141.9862  138.7586  164.0665 C.2     1  UNL1        0.0678
     31 C         142.2891  139.7407  162.9739 C.2     1  UNL1        0.0123
     32 C         143.6121  140.4468  162.9458 C.2     1  UNL1        0.1019
     33 C         140.6630  138.0524  164.0947 C.3     1  UNL1        0.4183
     34 F         139.3399  137.3464  164.1228 F       1  UNL1       -0.1659
     35 F         141.3696  136.7314  164.1687 F       1  UNL1       -0.1659
     36 F         139.9565  139.3735  164.0207 F       1  UNL1       -0.1659
@<TRIPOS>BOND
     1    17    18    1
     2    18    19    2
     3    18    20    2
     4    18    15    1
     5     9    15    1
     6     9    10    1
     7    10    11    1
     8    11    12    1
     9    12     5    1
    10     5     6    1
    11     6     7    1
    12     7     1    1
    13     1     2   am
    14     2     3    2
    15     2    21    1
    16    21    22    1
    17    22    24    1
    18    24    25    2
    19    25    26    1
    20    26    27    2
    21    27    28    1
    22    28    29    1
    23    29    30    2
    24    30    33    1
    25    33    34    1
    26    33    35    1
    27    33    36    1
    28    30    31    1
    29    31    32    2
    30     7     8    1
    31    12    13    1
    32    13    14    1
    33    14     9    1
    34     8     5    1
    35    32    24    1
    36    32    27    1
    37    15    16    1
    38     1     4    1
    39    22    23    1
