@<TRIPOS>MOLECULE
*****
 33 37 0 0 0
SMALL
GASTEIGER

@<TRIPOS>ATOM
      1 C         142.2319  141.5476  161.9265 C.ar    1  UNL1        0.2007
      2 N         141.4580  140.9081  163.0410 N.ar    1  UNL1       -0.2090
      3 C         142.4331  140.2077  163.9402 C.ar    1  UNL1        0.1415
      4 N         143.8098  140.4142  163.3814 N.ar    1  UNL1       -0.2360
      5 N         143.6854  141.2423  162.1368 N.ar    1  UNL1       -0.1472
      6 C         144.9986  139.8216  164.0779 C.3     1  UNL1        0.1289
      7 C         144.8109  139.0225  165.3333 C.3     1  UNL1        0.0272
      8 C         143.4343  138.8159  165.8921 C.3     1  UNL1        0.0140
      9 C         142.2454  139.4085  165.1956 C.3     1  UNL1        0.0806
     10 C         140.3474  144.4340  159.9600 C.ar    1  UNL1        0.2417
     11 N         140.9254  143.6304  161.0870 N.ar    1  UNL1       -0.2073
     12 C         141.6539  142.3511  160.7994 C.ar    1  UNL1        0.1219
     13 C         141.8043  141.8754  159.3849 C.ar    1  UNL1        0.0240
     14 C         141.2262  142.6790  158.2579 C.ar    1  UNL1        0.0240
     15 C         140.4978  143.9583  158.5454 C.ar    1  UNL1        0.1189
     16 N         139.9197  144.7618  157.4184 N.ar    1  UNL1       -0.2826
     17 C         138.8956  144.2862  156.4311 C.ar    1  UNL1        0.1826
     18 N         138.6072  145.4125  155.4833 N.ar    1  UNL1       -0.2280
     19 C         139.4532  146.5843  155.8849 C.ar    1  UNL1        0.0786
     20 C         139.4828  147.9232  155.2092 C.3     1  UNL1        0.0538
     21 C         140.2644  146.1821  157.0809 C.ar    1  UNL1        0.0963
     22 C         139.6811  146.3200  161.6180 C.3     1  UNL1        0.2543
     23 O         139.6189  145.7134  160.2476 O.3     1  UNL1       -0.4551
     24 C         140.8688  139.2020  165.7544 C.ar    1  UNL1       -0.0114
     25 C         140.4319  139.9613  166.9719 C.ar    1  UNL1       -0.0039
     26 C         139.0553  139.7548  167.5307 C.ar    1  UNL1       -0.0003
     27 C         138.1156  138.7889  166.8720 C.ar    1  UNL1       -0.0001
     28 C         138.5525  138.0296  165.6544 C.ar    1  UNL1        0.0035
     29 C         139.9291  138.2361  165.0956 C.ar    1  UNL1        0.0679
     30 C         140.3660  137.4768  163.8779 C.3     1  UNL1        0.4183
     31 F         140.8028  136.7174  162.6604 F       1  UNL1       -0.1659
     32 F         139.5643  138.4032  163.0125 F       1  UNL1       -0.1659
     33 F         141.1676  136.5504  164.7434 F       1  UNL1       -0.1659
@<TRIPOS>BOND
     1    22    23    1
     2    23    10    1
     3    10    11   ar
     4    11    12   ar
     5    12     1    1
     6     1     2   ar
     7     2     3   ar
     8     3     4   ar
     9     4     5   ar
    10     4     6    1
    11     6     7    1
    12     7     8    1
    13     8     9    1
    14     9    24    1
    15    24    25   ar
    16    25    26   ar
    17    26    27   ar
    18    27    28   ar
    19    28    29   ar
    20    29    30    1
    21    30    31    1
    22    30    32    1
    23    30    33    1
    24    12    13   ar
    25    13    14   ar
    26    14    15   ar
    27    15    16    1
    28    16    17   ar
    29    17    18   ar
    30    18    19   ar
    31    19    20    1
    32    19    21   ar
    33    15    10   ar
    34    21    16   ar
    35     5     1   ar
    36    29    24   ar
    37     9     3    1
@<TRIPOS>MOLECULE
*****
 33 37 0 0 0
SMALL
GASTEIGER

@<TRIPOS>ATOM
      1 C         139.8186  141.4673  163.9535 C.ar    1  UNL1        0.2007
      2 N         140.3738  141.7269  165.3226 N.ar    1  UNL1       -0.2090
      3 C         139.6707  140.8191  166.2877 C.ar    1  UNL1        0.1415
      4 N         138.6809  139.9984  165.5152 N.ar    1  UNL1       -0.2360
      5 N         138.7724  140.3990  164.0725 N.ar    1  UNL1       -0.1472
      6 C         137.8243  138.9924  166.2251 C.3     1  UNL1        0.1289
      7 C         137.9574  138.8070  167.7076 C.3     1  UNL1        0.0272
      8 C         138.9472  139.6277  168.4802 C.3     1  UNL1        0.0140
      9 C         139.8038  140.6337  167.7703 C.3     1  UNL1        0.0806
     10 C         142.0168  143.4613  161.3188 C.ar    1  UNL1        0.2417
     11 N         141.5991  142.7734  162.5846 N.ar    1  UNL1       -0.2073
     12 C         140.2364  142.1552  162.6877 C.ar    1  UNL1        0.1219
     13 C         139.2914  142.2247  161.5249 C.ar    1  UNL1        0.0240
     14 C         139.7091  142.9126  160.2591 C.ar    1  UNL1        0.0240
     15 C         141.0718  143.5309  160.1560 C.ar    1  UNL1        0.1189
     16 N         141.4896  144.2188  158.8902 N.ar    1  UNL1       -0.2826
     17 C         141.4895  145.6994  158.6499 C.ar    1  UNL1        0.1826
     18 N         141.9806  145.9425  157.2536 N.ar    1  UNL1       -0.2280
     19 C         142.2842  144.6121  156.6308 C.ar    1  UNL1        0.0786
     20 C         142.8007  144.3866  155.2407 C.3     1  UNL1        0.0538
     21 C         141.9808  143.5468  157.6423 C.ar    1  UNL1        0.0963
     22 C         144.5005  143.5716  162.0734 C.3     1  UNL1        0.2543
     23 O         143.3796  144.0796  161.2158 O.3     1  UNL1       -0.4551
     24 C         140.7936  141.4544  168.5428 C.ar    1  UNL1       -0.0114
     25 C         140.3556  142.7232  169.2123 C.ar    1  UNL1       -0.0039
     26 C         141.3454  143.5439  169.9849 C.ar    1  UNL1       -0.0003
     27 C         142.7731  143.0957  170.0880 C.ar    1  UNL1       -0.0001
     28 C         143.2111  141.8269  169.4186 C.ar    1  UNL1        0.0035
     29 C         142.2213  141.0062  168.6460 C.ar    1  UNL1        0.0679
     30 C         142.6593  139.7373  167.9765 C.3     1  UNL1        0.4183
     31 F         143.0974  138.4685  167.3071 F       1  UNL1       -0.1659
     32 F         142.3179  138.9653  169.2164 F       1  UNL1       -0.1659
     33 F         143.0008  140.5094  166.7367 F       1  UNL1       -0.1659
@<TRIPOS>BOND
     1    22    23    1
     2    23    10    1
     3    10    11   ar
     4    11    12   ar
     5    12     1    1
     6     1     2   ar
     7     2     3   ar
     8     3     4   ar
     9     4     5   ar
    10     4     6    1
    11     6     7    1
    12     7     8    1
    13     8     9    1
    14     9    24    1
    15    24    25   ar
    16    25    26   ar
    17    26    27   ar
    18    27    28   ar
    19    28    29   ar
    20    29    30    1
    21    30    31    1
    22    30    32    1
    23    30    33    1
    24    12    13   ar
    25    13    14   ar
    26    14    15   ar
    27    15    16    1
    28    16    17   ar
    29    17    18   ar
    30    18    19   ar
    31    19    20    1
    32    19    21   ar
    33    15    10   ar
    34    21    16   ar
    35     5     1   ar
    36    29    24   ar
    37     9     3    1
@<TRIPOS>MOLECULE
*****
 33 37 0 0 0
SMALL
GASTEIGER

@<TRIPOS>ATOM
      1 C         142.1379  141.4687  161.8267 C.ar    1  UNL1        0.2007
      2 N         141.3575  140.7575  162.8921 N.ar    1  UNL1       -0.2090
      3 C         142.3327  140.0612  163.7944 C.ar    1  UNL1        0.1415
      4 N         143.7159  140.3421  163.2866 N.ar    1  UNL1       -0.2360
      5 N         143.5955  141.2119  162.0706 N.ar    1  UNL1       -0.1472
      6 C         144.9063  139.7695  163.9972 C.3     1  UNL1        0.1289
      7 C         144.7136  138.9160  165.2156 C.3     1  UNL1        0.0272
      8 C         143.3303  138.6351  165.7233 C.3     1  UNL1        0.0140
      9 C         142.1399  139.2077  165.0127 C.3     1  UNL1        0.0806
     10 C         140.3297  144.4301  159.9006 C.ar    1  UNL1        0.2417
     11 N         140.9057  143.6067  161.0143 N.ar    1  UNL1       -0.2073
     12 C         141.5619  142.2920  160.7130 C.ar    1  UNL1        0.1219
     13 C         141.6422  141.8007  159.2981 C.ar    1  UNL1        0.0240
     14 C         141.0662  142.6240  158.1844 C.ar    1  UNL1        0.0240
     15 C         140.4099  143.9388  158.4856 C.ar    1  UNL1        0.1189
     16 N         139.8339  144.7621  157.3720 N.ar    1  UNL1       -0.2826
     17 C         138.8679  144.2825  156.3295 C.ar    1  UNL1        0.1826
     18 N         138.5598  145.4336  155.4184 N.ar    1  UNL1       -0.2280
     19 C         139.3353  146.6247  155.8978 C.ar    1  UNL1        0.0786
     20 C         139.3253  147.9909  155.2787 C.3     1  UNL1        0.0538
     21 C         140.1228  146.2097  157.1052 C.ar    1  UNL1        0.0963
     22 C         139.7022  146.2953  161.5969 C.3     1  UNL1        0.2543
     23 O         139.6734  145.7449  160.2019 O.3     1  UNL1       -0.4551
     24 C         140.7567  138.9269  165.5205 C.ar    1  UNL1       -0.0114
     25 C         139.9510  137.8111  164.9241 C.ar    1  UNL1       -0.0039
     26 C         138.5678  137.5302  165.4318 C.ar    1  UNL1       -0.0003
     27 C         137.9902  138.3652  166.5360 C.ar    1  UNL1       -0.0001
     28 C         138.7960  139.4810  167.1325 C.ar    1  UNL1        0.0035
     29 C         140.1792  139.7618  166.6247 C.ar    1  UNL1        0.0679
     30 C         140.9849  140.8777  167.2212 C.3     1  UNL1        0.4183
     31 F         141.7906  141.9935  167.8177 F       1  UNL1       -0.1659
     32 F         140.4351  141.8234  166.1948 F       1  UNL1       -0.1659
     33 F         141.5347  139.9321  168.2475 F       1  UNL1       -0.1659
@<TRIPOS>BOND
     1    22    23    1
     2    23    10    1
     3    10    11   ar
     4    11    12   ar
     5    12     1    1
     6     1     2   ar
     7     2     3   ar
     8     3     4   ar
     9     4     5   ar
    10     4     6    1
    11     6     7    1
    12     7     8    1
    13     8     9    1
    14     9    24    1
    15    24    25   ar
    16    25    26   ar
    17    26    27   ar
    18    27    28   ar
    19    28    29   ar
    20    29    30    1
    21    30    31    1
    22    30    32    1
    23    30    33    1
    24    12    13   ar
    25    13    14   ar
    26    14    15   ar
    27    15    16    1
    28    16    17   ar
    29    17    18   ar
    30    18    19   ar
    31    19    20    1
    32    19    21   ar
    33    15    10   ar
    34    21    16   ar
    35     5     1   ar
    36    29    24   ar
    37     9     3    1
@<TRIPOS>MOLECULE
*****
 33 37 0 0 0
SMALL
GASTEIGER

@<TRIPOS>ATOM
      1 C         140.6300  139.3286  161.6972 C.ar    1  UNL1        0.2007
      2 N         141.1993  140.5693  162.3190 N.ar    1  UNL1       -0.2090
      3 C         140.6270  140.7006  163.6993 C.ar    1  UNL1        0.1415
      4 N         139.7039  139.5411  163.9306 N.ar    1  UNL1       -0.2360
      5 N         139.7058  138.6932  162.6933 N.ar    1  UNL1       -0.1472
      6 C         138.9810  139.4072  165.2380 C.3     1  UNL1        0.1289
      7 C         139.1811  140.4328  166.3141 C.3     1  UNL1        0.0272
      8 C         140.1041  141.5923  166.0828 C.3     1  UNL1        0.0140
      9 C         140.8271  141.7262  164.7754 C.3     1  UNL1        0.0806
     10 C         140.1588  138.2793  157.8990 C.ar    1  UNL1        0.2417
     11 N         139.8569  138.7942  159.2751 N.ar    1  UNL1       -0.2073
     12 C         140.9319  138.8138  160.3211 C.ar    1  UNL1        0.1219
     13 C         142.3087  138.3186  159.9908 C.ar    1  UNL1        0.0240
     14 C         142.6106  137.8038  158.6147 C.ar    1  UNL1        0.0240
     15 C         141.5356  137.7841  157.5687 C.ar    1  UNL1        0.1189
     16 N         141.8375  137.2693  156.1926 N.ar    1  UNL1       -0.2826
     17 C         142.3424  138.0829  155.0379 C.ar    1  UNL1        0.1826
     18 N         142.5044  137.1669  153.8612 N.ar    1  UNL1       -0.2280
     19 C         142.0997  135.7872  154.2885 C.ar    1  UNL1        0.0786
     20 C         142.1060  134.5597  153.4264 C.3     1  UNL1        0.0538
     21 C         141.6875  135.8505  155.7294 C.ar    1  UNL1        0.0963
     22 C         138.8464  139.4695  155.9987 C.3     1  UNL1        0.2543
     23 O         139.0838  138.2597  156.8530 O.3     1  UNL1       -0.4551
     24 C         141.7502  142.8857  164.5441 C.ar    1  UNL1       -0.0114
     25 C         143.2144  142.7493  164.8395 C.ar    1  UNL1       -0.0039
     26 C         144.1375  143.9088  164.6082 C.ar    1  UNL1       -0.0003
     27 C         143.5963  145.2048  164.0815 C.ar    1  UNL1       -0.0001
     28 C         142.1320  145.3413  163.7861 C.ar    1  UNL1        0.0035
     29 C         141.2090  144.1817  164.0174 C.ar    1  UNL1        0.0679
     30 C         139.7447  144.3183  163.7220 C.3     1  UNL1        0.4183
     31 F         138.2804  144.4548  163.4265 F       1  UNL1       -0.1659
     32 F         139.5164  144.8581  165.1027 F       1  UNL1       -0.1659
     33 F         139.9729  143.7785  162.3413 F       1  UNL1       -0.1659
@<TRIPOS>BOND
     1    22    23    1
     2    23    10    1
     3    10    11   ar
     4    11    12   ar
     5    12     1    1
     6     1     2   ar
     7     2     3   ar
     8     3     4   ar
     9     4     5   ar
    10     4     6    1
    11     6     7    1
    12     7     8    1
    13     8     9    1
    14     9    24    1
    15    24    25   ar
    16    25    26   ar
    17    26    27   ar
    18    27    28   ar
    19    28    29   ar
    20    29    30    1
    21    30    31    1
    22    30    32    1
    23    30    33    1
    24    12    13   ar
    25    13    14   ar
    26    14    15   ar
    27    15    16    1
    28    16    17   ar
    29    17    18   ar
    30    18    19   ar
    31    19    20    1
    32    19    21   ar
    33    15    10   ar
    34    21    16   ar
    35     5     1   ar
    36    29    24   ar
    37     9     3    1
@<TRIPOS>MOLECULE
*****
 33 37 0 0 0
SMALL
GASTEIGER

@<TRIPOS>ATOM
      1 C         143.3198  140.7933  162.0361 C.ar    1  UNL1        0.2007
      2 N         142.1523  141.4349  162.7254 N.ar    1  UNL1       -0.2090
      3 C         142.0250  140.8223  164.0887 C.ar    1  UNL1        0.1415
      4 N         143.1140  139.8022  164.2419 N.ar    1  UNL1       -0.2360
      5 N         143.9142  139.7842  162.9733 N.ar    1  UNL1       -0.1472
      6 C         143.2362  139.0214  165.5168 C.3     1  UNL1        0.1289
      7 C         142.2695  139.2607  166.6385 C.3     1  UNL1        0.0272
      8 C         141.1805  140.2809  166.4852 C.3     1  UNL1        0.0140
      9 C         141.0583  141.0617  165.2104 C.3     1  UNL1        0.0806
     10 C         144.1705  140.3939  158.1803 C.ar    1  UNL1        0.2417
     11 N         143.6830  140.0813  159.5640 N.ar    1  UNL1       -0.2073
     12 C         143.8074  141.1059  160.6524 C.ar    1  UNL1        0.1219
     13 C         144.4194  142.4431  160.3571 C.ar    1  UNL1        0.0240
     14 C         144.9070  142.7558  158.9734 C.ar    1  UNL1        0.0240
     15 C         144.7826  141.7312  157.8850 C.ar    1  UNL1        0.1189
     16 N         145.2701  142.0438  156.5014 N.ar    1  UNL1       -0.2826
     17 C         144.4119  142.3964  155.3228 C.ar    1  UNL1        0.1826
     18 N         145.3129  142.6292  154.1463 N.ar    1  UNL1       -0.2280
     19 C         146.7280  142.4204  154.5978 C.ar    1  UNL1        0.0786
     20 C         147.9543  142.5506  153.7438 C.3     1  UNL1        0.0538
     21 C         146.7016  142.0586  156.0533 C.ar    1  UNL1        0.0963
     22 C         142.7121  139.1063  156.4584 C.3     1  UNL1        0.2543
     23 O         144.0461  139.3693  157.0919 O.3     1  UNL1       -0.4551
     24 C         139.9694  142.0819  165.0571 C.ar    1  UNL1       -0.0114
     25 C         140.2140  143.5061  165.4592 C.ar    1  UNL1       -0.0039
     26 C         139.1251  144.5263  165.3060 C.ar    1  UNL1       -0.0003
     27 C         137.7916  144.1222  164.7507 C.ar    1  UNL1       -0.0001
     28 C         137.5470  142.6980  164.3486 C.ar    1  UNL1        0.0035
     29 C         138.6359  141.6778  164.5018 C.ar    1  UNL1        0.0679
     30 C         138.3912  140.2535  164.0997 C.3     1  UNL1        0.4183
     31 F         138.1465  138.8293  163.6977 F       1  UNL1       -0.1659
     32 F         138.9251  140.5486  162.7294 F       1  UNL1       -0.1659
     33 F         137.8573  139.9585  165.4701 F       1  UNL1       -0.1659
@<TRIPOS>BOND
     1    22    23    1
     2    23    10    1
     3    10    11   ar
     4    11    12   ar
     5    12     1    1
     6     1     2   ar
     7     2     3   ar
     8     3     4   ar
     9     4     5   ar
    10     4     6    1
    11     6     7    1
    12     7     8    1
    13     8     9    1
    14     9    24    1
    15    24    25   ar
    16    25    26   ar
    17    26    27   ar
    18    27    28   ar
    19    28    29   ar
    20    29    30    1
    21    30    31    1
    22    30    32    1
    23    30    33    1
    24    12    13   ar
    25    13    14   ar
    26    14    15   ar
    27    15    16    1
    28    16    17   ar
    29    17    18   ar
    30    18    19   ar
    31    19    20    1
    32    19    21   ar
    33    15    10   ar
    34    21    16   ar
    35     5     1   ar
    36    29    24   ar
    37     9     3    1
@<TRIPOS>MOLECULE
*****
 33 37 0 0 0
SMALL
GASTEIGER

@<TRIPOS>ATOM
      1 C         142.1481  141.4714  161.8491 C.ar    1  UNL1        0.2007
      2 N         141.3602  140.7501  162.9021 N.ar    1  UNL1       -0.2090
      3 C         142.3293  140.0494  163.8076 C.ar    1  UNL1        0.1415
      4 N         143.7162  140.3377  163.3142 N.ar    1  UNL1       -0.2360
      5 N         143.6042  141.2166  162.1038 N.ar    1  UNL1       -0.1472
      6 C         144.9018  139.7628  164.0309 C.3     1  UNL1        0.1289
      7 C         144.7006  138.8995  165.2409 C.3     1  UNL1        0.0272
      8 C         143.3137  138.6111  165.7343 C.3     1  UNL1        0.0140
      9 C         142.1281  139.1861  165.0176 C.3     1  UNL1        0.0806
     10 C         141.9100  143.6515  158.5415 C.ar    1  UNL1        0.2417
     11 N         142.4784  142.8211  159.6538 N.ar    1  UNL1       -0.2073
     12 C         141.5797  142.3018  160.7368 C.ar    1  UNL1        0.1219
     13 C         140.1127  142.6130  160.7073 C.ar    1  UNL1        0.0240
     14 C         139.5443  143.4434  159.5949 C.ar    1  UNL1        0.0240
     15 C         140.4429  143.9626  158.5120 C.ar    1  UNL1        0.1189
     16 N         139.8746  144.7930  157.3996 N.ar    1  UNL1       -0.2826
     17 C         139.1278  144.2757  156.2061 C.ar    1  UNL1        0.1826
     18 N         138.7448  145.4495  155.3543 N.ar    1  UNL1       -0.2280
     19 C         139.2550  146.6923  156.0214 C.ar    1  UNL1        0.0786
     20 C         139.0950  148.0947  155.5137 C.3     1  UNL1        0.0538
     21 C         139.9532  146.2866  157.2855 C.ar    1  UNL1        0.0963
     22 C         143.0121  143.3717  156.2054 C.3     1  UNL1        0.2543
     23 O         142.8087  144.1707  157.4585 O.3     1  UNL1       -0.4551
     24 C         140.7412  138.8978  165.5110 C.ar    1  UNL1       -0.0114
     25 C         139.9537  137.7677  164.9171 C.ar    1  UNL1       -0.0039
     26 C         138.5668  137.4794  165.4105 C.ar    1  UNL1       -0.0003
     27 C         137.9675  138.3211  166.4978 C.ar    1  UNL1       -0.0001
     28 C         138.7550  139.4511  167.0918 C.ar    1  UNL1        0.0035
     29 C         140.1419  139.7394  166.5984 C.ar    1  UNL1        0.0679
     30 C         140.9294  140.8695  167.1924 C.3     1  UNL1        0.4183
     31 F         141.7169  141.9996  167.7863 F       1  UNL1       -0.1659
     32 F         141.4768  139.9402  168.2348 F       1  UNL1       -0.1659
     33 F         140.3820  141.7988  166.1499 F       1  UNL1       -0.1659
@<TRIPOS>BOND
     1    22    23    1
     2    23    10    1
     3    10    11   ar
     4    11    12   ar
     5    12     1    1
     6     1     2   ar
     7     2     3   ar
     8     3     4   ar
     9     4     5   ar
    10     4     6    1
    11     6     7    1
    12     7     8    1
    13     8     9    1
    14     9    24    1
    15    24    25   ar
    16    25    26   ar
    17    26    27   ar
    18    27    28   ar
    19    28    29   ar
    20    29    30    1
    21    30    31    1
    22    30    32    1
    23    30    33    1
    24    12    13   ar
    25    13    14   ar
    26    14    15   ar
    27    15    16    1
    28    16    17   ar
    29    17    18   ar
    30    18    19   ar
    31    19    20    1
    32    19    21   ar
    33    15    10   ar
    34    21    16   ar
    35     5     1   ar
    36    29    24   ar
    37     9     3    1
@<TRIPOS>MOLECULE
*****
 33 37 0 0 0
SMALL
GASTEIGER

@<TRIPOS>ATOM
      1 C         141.9632  138.8042  161.6206 C.ar    1  UNL1        0.2007
      2 N         141.9708  140.1913  162.1916 N.ar    1  UNL1       -0.2090
      3 C         142.1923  140.0824  163.6711 C.ar    1  UNL1        0.1415
      4 N         142.3217  138.6280  164.0146 N.ar    1  UNL1       -0.2360
      5 N         142.1801  137.8381  162.7473 N.ar    1  UNL1       -0.1472
      6 C         142.5517  138.2108  165.4369 C.3     1  UNL1        0.1289
      7 C         142.6524  139.2481  166.5157 C.3     1  UNL1        0.0272
      8 C         142.5230  140.7025  166.1722 C.3     1  UNL1        0.0140
      9 C         142.2930  141.1196  164.7499 C.3     1  UNL1        0.0806
     10 C         140.2945  138.4260  158.0398 C.ar    1  UNL1        0.2417
     11 N         140.4854  138.7841  159.4839 N.ar    1  UNL1       -0.2073
     12 C         141.7722  138.4462  160.1765 C.ar    1  UNL1        0.1219
     13 C         142.8682  137.7503  159.4251 C.ar    1  UNL1        0.0240
     14 C         142.6772  137.3923  157.9810 C.ar    1  UNL1        0.0240
     15 C         141.3904  137.7301  157.2884 C.ar    1  UNL1        0.1189
     16 N         141.1994  137.3721  155.8443 N.ar    1  UNL1       -0.2826
     17 C         140.3382  136.2628  155.3174 C.ar    1  UNL1        0.1826
     18 N         140.4427  136.2656  153.8210 N.ar    1  UNL1       -0.2280
     19 C         141.3685  137.3767  153.4231 C.ar    1  UNL1        0.0786
     20 C         141.7583  137.7401  152.0210 C.3     1  UNL1        0.0538
     21 C         141.8362  138.0605  154.6736 C.ar    1  UNL1        0.0963
     22 C         138.8793  140.0522  156.5896 C.3     1  UNL1        0.2543
     23 O         139.0075  138.7639  157.3471 O.3     1  UNL1       -0.4551
     24 C         142.1637  142.5740  164.4064 C.ar    1  UNL1       -0.0114
     25 C         140.8167  143.2337  164.4314 C.ar    1  UNL1       -0.0039
     26 C         140.6874  144.6881  164.0879 C.ar    1  UNL1       -0.0003
     27 C         141.9050  145.4829  163.7195 C.ar    1  UNL1       -0.0001
     28 C         143.2519  144.8232  163.6945 C.ar    1  UNL1        0.0035
     29 C         143.3812  143.3688  164.0380 C.ar    1  UNL1        0.0679
     30 C         144.7283  142.7092  164.0131 C.3     1  UNL1        0.4183
     31 F         146.0752  142.0497  163.9881 F       1  UNL1       -0.1659
     32 F         144.4999  142.2967  162.5891 F       1  UNL1       -0.1659
     33 F         144.9566  143.1217  165.4370 F       1  UNL1       -0.1659
@<TRIPOS>BOND
     1    22    23    1
     2    23    10    1
     3    10    11   ar
     4    11    12   ar
     5    12     1    1
     6     1     2   ar
     7     2     3   ar
     8     3     4   ar
     9     4     5   ar
    10     4     6    1
    11     6     7    1
    12     7     8    1
    13     8     9    1
    14     9    24    1
    15    24    25   ar
    16    25    26   ar
    17    26    27   ar
    18    27    28   ar
    19    28    29   ar
    20    29    30    1
    21    30    31    1
    22    30    32    1
    23    30    33    1
    24    12    13   ar
    25    13    14   ar
    26    14    15   ar
    27    15    16    1
    28    16    17   ar
    29    17    18   ar
    30    18    19   ar
    31    19    20    1
    32    19    21   ar
    33    15    10   ar
    34    21    16   ar
    35     5     1   ar
    36    29    24   ar
    37     9     3    1
@<TRIPOS>MOLECULE
*****
 33 37 0 0 0
SMALL
GASTEIGER

@<TRIPOS>ATOM
      1 C         141.8105  140.1842  160.9823 C.ar    1  UNL1        0.2007
      2 N         141.0326  141.0390  161.9385 N.ar    1  UNL1       -0.2090
      3 C         140.2665  140.1310  162.8543 C.ar    1  UNL1        0.1415
      4 N         140.5709  138.7150  162.4641 N.ar    1  UNL1       -0.2360
      5 N         141.5251  138.7479  161.3072 N.ar    1  UNL1       -0.1472
      6 C         139.9399  137.5786  163.2126 C.3     1  UNL1        0.1289
      7 C         139.0045  137.8582  164.3514 C.3     1  UNL1        0.0272
      8 C         138.7001  139.2742  164.7416 C.3     1  UNL1        0.0140
      9 C         139.3311  140.4106  163.9930 C.3     1  UNL1        0.0806
     10 C         143.9778  140.2722  157.6589 C.ar    1  UNL1        0.2417
     11 N         143.0734  139.7775  158.7486 N.ar    1  UNL1       -0.2073
     12 C         142.7149  140.6789  159.8927 C.ar    1  UNL1        0.1219
     13 C         143.2607  142.0749  159.9471 C.ar    1  UNL1        0.0240
     14 C         144.1651  142.5696  158.8574 C.ar    1  UNL1        0.0240
     15 C         144.5236  141.6682  157.7133 C.ar    1  UNL1        0.1189
     16 N         145.4280  142.1629  156.6237 N.ar    1  UNL1       -0.2826
     17 C         146.9067  142.3870  156.7389 C.ar    1  UNL1        0.1826
     18 N         147.4051  142.8829  155.4139 N.ar    1  UNL1       -0.2280
     19 C         146.2345  142.9654  154.4797 C.ar    1  UNL1        0.0786
     20 C         146.2780  143.4141  153.0491 C.3     1  UNL1        0.0538
     21 C         145.0126  142.5204  155.2274 C.ar    1  UNL1        0.0963
     22 C         143.4199  138.2475  156.1293 C.3     1  UNL1        0.2543
     23 O         144.3363  139.3707  156.5148 O.3     1  UNL1       -0.4551
     24 C         139.0267  141.8266  164.3832 C.ar    1  UNL1       -0.0114
     25 C         137.8870  142.5549  163.7345 C.ar    1  UNL1       -0.0039
     26 C         137.5826  143.9709  164.1247 C.ar    1  UNL1       -0.0003
     27 C         138.4179  144.6587  165.1635 C.ar    1  UNL1       -0.0001
     28 C         139.5575  143.9305  165.8122 C.ar    1  UNL1        0.0035
     29 C         139.8619  142.5144  165.4220 C.ar    1  UNL1        0.0679
     30 C         141.0017  141.7862  166.0707 C.3     1  UNL1        0.4183
     31 F         142.1414  141.0581  166.7194 F       1  UNL1       -0.1659
     32 F         140.0771  141.2966  167.1455 F       1  UNL1       -0.1659
     33 F         141.9263  142.2759  164.9959 F       1  UNL1       -0.1659
@<TRIPOS>BOND
     1    22    23    1
     2    23    10    1
     3    10    11   ar
     4    11    12   ar
     5    12     1    1
     6     1     2   ar
     7     2     3   ar
     8     3     4   ar
     9     4     5   ar
    10     4     6    1
    11     6     7    1
    12     7     8    1
    13     8     9    1
    14     9    24    1
    15    24    25   ar
    16    25    26   ar
    17    26    27   ar
    18    27    28   ar
    19    28    29   ar
    20    29    30    1
    21    30    31    1
    22    30    32    1
    23    30    33    1
    24    12    13   ar
    25    13    14   ar
    26    14    15   ar
    27    15    16    1
    28    16    17   ar
    29    17    18   ar
    30    18    19   ar
    31    19    20    1
    32    19    21   ar
    33    15    10   ar
    34    21    16   ar
    35     5     1   ar
    36    29    24   ar
    37     9     3    1
@<TRIPOS>MOLECULE
*****
 33 37 0 0 0
SMALL
GASTEIGER

@<TRIPOS>ATOM
      1 C         141.9019  138.8391  161.2883 C.ar    1  UNL1        0.2007
      2 N         141.9960  140.2068  161.8969 N.ar    1  UNL1       -0.2090
      3 C         142.2397  140.0440  163.3679 C.ar    1  UNL1        0.1415
      4 N         142.2961  138.5755  163.6686 N.ar    1  UNL1       -0.2360
      5 N         142.0873  137.8309  162.3833 N.ar    1  UNL1       -0.1472
      6 C         142.5304  138.1061  165.0739 C.3     1  UNL1        0.1289
      7 C         142.7081  139.1052  166.1785 C.3     1  UNL1        0.0272
      8 C         142.6517  140.5737  165.8778 C.3     1  UNL1        0.0140
      9 C         142.4175  141.0431  164.4725 C.3     1  UNL1        0.0806
     10 C         142.5437  137.6960  157.5425 C.ar    1  UNL1        0.2417
     11 N         142.7816  138.0018  158.9916 N.ar    1  UNL1       -0.2073
     12 C         141.6640  138.5332  159.8392 C.ar    1  UNL1        0.1219
     13 C         140.3085  138.7588  159.2378 C.ar    1  UNL1        0.0240
     14 C         140.0707  138.4529  157.7887 C.ar    1  UNL1        0.0240
     15 C         141.1882  137.9215  156.9410 C.ar    1  UNL1        0.1189
     16 N         140.9504  137.6157  155.4920 N.ar    1  UNL1       -0.2826
     17 C         141.1815  138.5526  154.3436 C.ar    1  UNL1        0.1826
     18 N         140.8136  137.8352  153.0787 N.ar    1  UNL1       -0.2280
     19 C         140.3551  136.4548  153.4453 C.ar    1  UNL1        0.0786
     20 C         139.8931  135.3960  152.4885 C.3     1  UNL1        0.0538
     21 C         140.4396  136.3192  154.9368 C.ar    1  UNL1        0.0963
     22 C         143.7250  135.7019  156.3684 C.3     1  UNL1        0.2543
     23 O         143.6614  137.1645  156.6948 O.3     1  UNL1       -0.4551
     24 C         142.3611  142.5115  164.1718 C.ar    1  UNL1       -0.0114
     25 C         141.0573  143.2471  164.2672 C.ar    1  UNL1       -0.0039
     26 C         141.0009  144.7155  163.9666 C.ar    1  UNL1       -0.0003
     27 C         142.2482  145.4485  163.5705 C.ar    1  UNL1       -0.0001
     28 C         143.5520  144.7130  163.4751 C.ar    1  UNL1        0.0035
     29 C         143.6084  143.2445  163.7758 C.ar    1  UNL1        0.0679
     30 C         144.9122  142.5090  163.6804 C.3     1  UNL1        0.4183
     31 F         146.2160  141.7735  163.5849 F       1  UNL1       -0.1659
     32 F         145.2248  142.8787  165.1001 F       1  UNL1       -0.1659
     33 F         144.5997  142.1392  162.2607 F       1  UNL1       -0.1659
@<TRIPOS>BOND
     1    22    23    1
     2    23    10    1
     3    10    11   ar
     4    11    12   ar
     5    12     1    1
     6     1     2   ar
     7     2     3   ar
     8     3     4   ar
     9     4     5   ar
    10     4     6    1
    11     6     7    1
    12     7     8    1
    13     8     9    1
    14     9    24    1
    15    24    25   ar
    16    25    26   ar
    17    26    27   ar
    18    27    28   ar
    19    28    29   ar
    20    29    30    1
    21    30    31    1
    22    30    32    1
    23    30    33    1
    24    12    13   ar
    25    13    14   ar
    26    14    15   ar
    27    15    16    1
    28    16    17   ar
    29    17    18   ar
    30    18    19   ar
    31    19    20    1
    32    19    21   ar
    33    15    10   ar
    34    21    16   ar
    35     5     1   ar
    36    29    24   ar
    37     9     3    1
