@<TRIPOS>MOLECULE
*****
 29 32 0 0 0
SMALL
GASTEIGER

@<TRIPOS>ATOM
      1 C         142.5360  143.6874  163.2332 C.2     1  UNL1        0.3298
      2 C         141.5861  144.8418  163.3558 C.2     1  UNL1        0.1070
      3 C         140.8873  145.3705  162.1384 C.2     1  UNL1        0.1012
      4 N         139.9044  146.4880  161.9513 N.2     1  UNL1       -0.1516
      5 N         139.5480  146.5531  160.4957 N.2     1  UNL1       -0.1517
      6 C         140.3106  145.4757  159.7832 C.2     1  UNL1        0.0968
      7 C         141.1384  144.7448  160.7984 C.3     1  UNL1        0.1533
      8 C         142.0883  143.5904  160.6758 C.2     1  UNL1        0.2205
      9 N         142.7871  143.0617  161.8932 N.2     1  UNL1       -0.0400
     10 N         143.2186  141.6929  166.5957 N.am    1  UNL1       -0.2666
     11 C         142.5197  142.2217  165.3783 C.2     1  UNL1        0.3927
     12 O         141.1057  141.8135  165.0886 O.2     1  UNL1       -0.2238
     13 N         143.2349  143.1586  164.4506 N.am    1  UNL1       -0.1531
     14 H         144.1467  141.9608  166.7858 H       1  UNL1        0.1533
     15 H         144.1630  143.4265  164.6407 H       1  UNL1        0.3030
     16 C         142.7778  139.2826  167.4595 C.3     1  UNL1        0.0263
     17 C         142.5034  140.7559  167.5234 C.3     1  UNL1        0.0977
     18 C         141.5140  141.2923  168.5150 C.ar    1  UNL1       -0.0044
     19 C         141.6499  142.6960  169.0260 C.ar    1  UNL1       -0.0027
     20 C         140.6605  143.2323  170.0176 C.ar    1  UNL1       -0.0003
     21 C         139.5350  142.3650  170.4982 C.ar    1  UNL1       -0.0000
     22 C         139.3990  140.9613  169.9872 C.ar    1  UNL1       -0.0003
     23 C         140.3885  140.4249  168.9956 C.ar    1  UNL1       -0.0027
     24 C         140.2553  145.1810  158.3135 C.ar    1  UNL1        0.0557
     25 C         139.7227  143.9275  157.6851 C.ar    1  UNL1        0.1229
     26 N         139.8610  144.0597  156.1973 N.ar    1  UNL1       -0.1676
     27 N         140.4792  145.3951  155.9063 N.ar    1  UNL1       -0.2473
     28 C         140.7978  145.9416  154.5461 C.3     1  UNL1        0.1538
     29 C         140.7229  146.0881  157.2141 C.ar    1  UNL1        0.0979
@<TRIPOS>BOND
     1    17    16    1
     2    17    10    1
     3    10    11   am
     4    11    12    2
     5    11    13   am
     6    13     1    1
     7     1     2    2
     8     2     3    1
     9     3     4    2
    10     4     5    1
    11     5     6    2
    12     6    24    1
    13    24    25   ar
    14    25    26   ar
    15    26    27   ar
    16    27    28    1
    17    27    29   ar
    18     6     7    1
    19     7     8    1
    20     8     9    2
    21    17    18    1
    22    18    19   ar
    23    19    20   ar
    24    20    21   ar
    25    21    22   ar
    26    22    23   ar
    27     9     1    1
    28    23    18   ar
    29     7     3    1
    30    29    24   ar
    31    10    14    1
    32    13    15    1
@<TRIPOS>MOLECULE
*****
 29 32 0 0 0
SMALL
GASTEIGER

@<TRIPOS>ATOM
      1 C         140.0557  141.7903  162.6361 C.2     1  UNL1        0.3298
      2 C         139.4806  143.1302  162.9876 C.2     1  UNL1        0.1070
      3 C         139.5602  144.2615  162.0058 C.2     1  UNL1        0.1012
      4 N         139.0857  145.6829  162.0717 N.2     1  UNL1       -0.1516
      5 N         139.4472  146.3527  160.7792 N.2     1  UNL1       -0.1517
      6 C         140.1451  145.3452  159.9145 C.2     1  UNL1        0.0968
      7 C         140.2149  144.0527  160.6725 C.3     1  UNL1        0.1533
      8 C         140.7901  142.7128  160.3210 C.2     1  UNL1        0.2205
      9 N         140.7105  141.5815  161.3028 N.2     1  UNL1       -0.0400
     10 N         140.8815  139.4430  165.7278 N.am    1  UNL1       -0.2666
     11 C         140.9611  140.5743  164.7460 C.2     1  UNL1        0.3927
     12 O         142.0256  141.6209  164.8924 O.2     1  UNL1       -0.2238
     13 N         139.9762  140.6590  163.6179 N.am    1  UNL1       -0.1531
     14 H         140.1828  138.7560  165.6318 H       1  UNL1        0.1533
     15 H         139.2775  139.9720  163.5218 H       1  UNL1        0.3030
     16 C         143.2337  138.7897  166.6168 C.3     1  UNL1        0.0263
     17 C         141.8664  139.3583  166.8560 C.3     1  UNL1        0.0977
     18 C         141.4840  139.8422  168.2233 C.ar    1  UNL1       -0.0044
     19 C         140.0438  140.1032  168.5510 C.ar    1  UNL1       -0.0027
     20 C         139.6614  140.5871  169.9183 C.ar    1  UNL1       -0.0003
     21 C         140.7193  140.8100  170.9580 C.ar    1  UNL1       -0.0000
     22 C         142.1596  140.5490  170.6304 C.ar    1  UNL1       -0.0003
     23 C         142.5420  140.0651  169.2630 C.ar    1  UNL1       -0.0027
     24 C         140.6794  145.5876  158.5340 C.ar    1  UNL1        0.0557
     25 C         142.0598  145.2534  158.0515 C.ar    1  UNL1        0.1229
     26 N         142.1607  145.6659  156.6129 N.ar    1  UNL1       -0.1676
     27 N         140.8425  146.2551  156.2062 N.ar    1  UNL1       -0.2473
     28 C         140.5000  146.7976  154.8503 C.3     1  UNL1        0.1538
     29 C         139.9271  146.2067  157.3935 C.ar    1  UNL1        0.0979
@<TRIPOS>BOND
     1    17    16    1
     2    17    10    1
     3    10    11   am
     4    11    12    2
     5    11    13   am
     6    13     1    1
     7     1     2    2
     8     2     3    1
     9     3     4    2
    10     4     5    1
    11     5     6    2
    12     6    24    1
    13    24    25   ar
    14    25    26   ar
    15    26    27   ar
    16    27    28    1
    17    27    29   ar
    18     6     7    1
    19     7     8    1
    20     8     9    2
    21    17    18    1
    22    18    19   ar
    23    19    20   ar
    24    20    21   ar
    25    21    22   ar
    26    22    23   ar
    27     9     1    1
    28    23    18   ar
    29     7     3    1
    30    29    24   ar
    31    10    14    1
    32    13    15    1
@<TRIPOS>MOLECULE
*****
 29 32 0 0 0
SMALL
GASTEIGER

@<TRIPOS>ATOM
      1 C         141.8060  138.1360  163.6171 C.2     1  UNL1        0.3298
      2 C         140.4189  137.6403  163.9002 C.2     1  UNL1        0.1070
      3 C         139.6662  138.1570  165.0904 C.2     1  UNL1        0.1012
      4 N         138.2952  137.8557  165.6191 N.2     1  UNL1       -0.1516
      5 N         138.0823  138.6818  166.8529 N.2     1  UNL1       -0.1517
      6 C         139.3217  139.4936  167.0867 C.2     1  UNL1        0.0968
      7 C         140.3007  139.1693  165.9974 C.3     1  UNL1        0.1533
      8 C         141.6878  139.6650  165.7142 C.2     1  UNL1        0.2205
      9 N         142.4404  139.1483  164.5241 N.2     1  UNL1       -0.0400
     10 N         143.0369  137.6653  159.8736 N.am    1  UNL1       -0.2666
     11 C         142.2842  138.1819  161.0638 C.2     1  UNL1        0.3927
     12 O         141.2569  139.2612  160.8908 O.2     1  UNL1       -0.2238
     13 N         142.5587  137.6194  162.4269 N.am    1  UNL1       -0.1531
     14 H         143.7112  136.9570  159.9871 H       1  UNL1        0.1533
     15 H         143.2330  136.9110  162.5404 H       1  UNL1        0.3030
     16 C         143.0903  139.6605  158.2104 C.3     1  UNL1        0.0263
     17 C         142.7624  138.2279  158.5105 C.3     1  UNL1        0.0977
     18 C         142.1599  137.3579  157.4474 C.ar    1  UNL1       -0.0044
     19 C         140.8502  137.7362  156.8218 C.ar    1  UNL1       -0.0027
     20 C         140.2477  136.8661  155.7587 C.ar    1  UNL1       -0.0003
     21 C         140.9550  135.6178  155.3213 C.ar    1  UNL1       -0.0000
     22 C         142.2647  135.2395  155.9469 C.ar    1  UNL1       -0.0003
     23 C         142.8672  136.1095  157.0100 C.ar    1  UNL1       -0.0027
     24 C         139.5434  140.4602  168.2121 C.ar    1  UNL1        0.0557
     25 C         139.1161  140.2674  169.6370 C.ar    1  UNL1        0.1229
     26 N         139.5398  141.4772  170.4159 N.ar    1  UNL1       -0.1676
     27 N         140.2291  142.4178  169.4722 N.ar    1  UNL1       -0.2473
     28 C         140.8135  143.7527  169.8282 C.3     1  UNL1        0.1538
     29 C         140.2312  141.7893  168.1103 C.ar    1  UNL1        0.0979
@<TRIPOS>BOND
     1    17    16    1
     2    17    10    1
     3    10    11   am
     4    11    12    2
     5    11    13   am
     6    13     1    1
     7     1     2    2
     8     2     3    1
     9     3     4    2
    10     4     5    1
    11     5     6    2
    12     6    24    1
    13    24    25   ar
    14    25    26   ar
    15    26    27   ar
    16    27    28    1
    17    27    29   ar
    18     6     7    1
    19     7     8    1
    20     8     9    2
    21    17    18    1
    22    18    19   ar
    23    19    20   ar
    24    20    21   ar
    25    21    22   ar
    26    22    23   ar
    27     9     1    1
    28    23    18   ar
    29     7     3    1
    30    29    24   ar
    31    10    14    1
    32    13    15    1
@<TRIPOS>MOLECULE
*****
 29 32 0 0 0
SMALL
GASTEIGER

@<TRIPOS>ATOM
      1 C         138.8632  139.2539  159.9313 C.2     1  UNL1        0.3298
      2 C         138.2341  140.5783  160.2478 C.2     1  UNL1        0.1070
      3 C         138.0711  141.0091  161.6752 C.2     1  UNL1        0.1012
      4 N         137.4922  142.2491  162.2896 N.2     1  UNL1       -0.1516
      5 N         137.6004  142.1219  163.7802 N.2     1  UNL1       -0.1517
      6 C         138.2462  140.8033  164.0872 C.2     1  UNL1        0.0968
      7 C         138.5371  140.1155  162.7863 C.3     1  UNL1        0.1533
      8 C         139.1662  138.7911  162.4698 C.2     1  UNL1        0.2205
      9 N         139.3292  138.3603  161.0423 N.2     1  UNL1       -0.0400
     10 N         140.5057  137.8523  156.6014 N.am    1  UNL1       -0.2666
     11 C         140.3427  138.2832  158.0289 C.2     1  UNL1        0.3927
     12 O         141.4962  138.1744  158.9816 O.2     1  UNL1       -0.2238
     13 N         139.0262  138.8229  158.5037 N.am    1  UNL1       -0.1531
     14 H         139.7486  137.9238  155.9761 H       1  UNL1        0.1533
     15 H         138.2691  138.8944  157.8785 H       1  UNL1        0.3030
     16 C         142.8632  138.2458  155.5831 C.3     1  UNL1        0.0263
     17 C         141.8222  137.3126  156.1266 C.3     1  UNL1        0.0977
     18 C         142.0977  135.8397  156.1951 C.ar    1  UNL1       -0.0044
     19 C         143.1615  135.3177  157.1148 C.ar    1  UNL1       -0.0027
     20 C         143.4369  133.8448  157.1833 C.ar    1  UNL1       -0.0003
     21 C         142.6486  132.8939  156.3323 C.ar    1  UNL1       -0.0000
     22 C         141.5847  133.4160  155.4127 C.ar    1  UNL1       -0.0003
     23 C         141.3093  134.8888  155.3441 C.ar    1  UNL1       -0.0027
     24 C         138.5481  140.2666  165.4550 C.ar    1  UNL1        0.0557
     25 C         137.8993  139.0771  166.0984 C.ar    1  UNL1        0.1229
     26 N         138.5020  138.9005  167.4606 N.ar    1  UNL1       -0.1676
     27 N         139.5235  139.9809  167.6590 N.ar    1  UNL1       -0.2473
     28 C         140.3682  140.1818  168.8822 C.3     1  UNL1        0.1538
     29 C         139.5520  140.8252  166.4194 C.ar    1  UNL1        0.0979
@<TRIPOS>BOND
     1    17    16    1
     2    17    10    1
     3    10    11   am
     4    11    12    2
     5    11    13   am
     6    13     1    1
     7     1     2    2
     8     2     3    1
     9     3     4    2
    10     4     5    1
    11     5     6    2
    12     6    24    1
    13    24    25   ar
    14    25    26   ar
    15    26    27   ar
    16    27    28    1
    17    27    29   ar
    18     6     7    1
    19     7     8    1
    20     8     9    2
    21    17    18    1
    22    18    19   ar
    23    19    20   ar
    24    20    21   ar
    25    21    22   ar
    26    22    23   ar
    27     9     1    1
    28    23    18   ar
    29     7     3    1
    30    29    24   ar
    31    10    14    1
    32    13    15    1
@<TRIPOS>MOLECULE
*****
 29 32 0 0 0
SMALL
GASTEIGER

@<TRIPOS>ATOM
      1 C         141.5248  144.2709  163.0707 C.2     1  UNL1        0.3298
      2 C         142.6986  143.9722  163.9556 C.2     1  UNL1        0.1070
      3 C         142.5449  143.0302  165.1127 C.2     1  UNL1        0.1012
      4 N         143.5152  142.5477  166.1498 N.2     1  UNL1       -0.1516
      5 N         142.7876  141.6062  167.0631 N.2     1  UNL1       -0.1517
      6 C         141.3675  141.5068  166.5904 C.2     1  UNL1        0.0968
      7 C         141.2175  142.3869  165.3850 C.3     1  UNL1        0.1533
      8 C         140.0437  142.6856  164.5001 C.2     1  UNL1        0.2205
      9 N         140.1974  143.6276  163.3430 N.2     1  UNL1       -0.0400
     10 N         141.8677  145.6217  159.3548 N.am    1  UNL1       -0.2666
     11 C         141.7140  144.6797  160.5120 C.2     1  UNL1        0.3927
     12 O         141.5961  143.2045  160.2675 O.2     1  UNL1       -0.2238
     13 N         141.6784  145.2129  161.9135 N.am    1  UNL1       -0.1531
     14 H         141.9451  146.5900  159.5152 H       1  UNL1        0.1533
     15 H         141.7559  146.1812  162.0739 H       1  UNL1        0.3030
     16 C         142.7391  143.8858  157.6294 C.3     1  UNL1        0.0263
     17 C         141.9033  145.0885  157.9532 C.3     1  UNL1        0.0977
     18 C         141.1031  145.7580  156.8755 C.ar    1  UNL1       -0.0044
     19 C         139.8869  146.5599  157.2328 C.ar    1  UNL1       -0.0027
     20 C         139.0867  147.2294  156.1550 C.ar    1  UNL1       -0.0003
     21 C         139.5028  147.0970  154.7200 C.ar    1  UNL1       -0.0000
     22 C         140.7191  146.2951  154.3627 C.ar    1  UNL1       -0.0003
     23 C         141.5192  145.6257  155.4405 C.ar    1  UNL1       -0.0027
     24 C         140.2870  140.6737  167.2136 C.ar    1  UNL1        0.0557
     25 C         139.9492  140.6167  168.6739 C.ar    1  UNL1        0.1229
     26 N         138.8081  139.6590  168.8489 N.ar    1  UNL1       -0.1676
     27 N         138.4406  139.1240  167.4965 N.ar    1  UNL1       -0.2473
     28 C         137.3505  138.1355  167.2058 C.3     1  UNL1        0.1538
     29 C         139.3547  139.7511  166.4859 C.ar    1  UNL1        0.0979
@<TRIPOS>BOND
     1    17    16    1
     2    17    10    1
     3    10    11   am
     4    11    12    2
     5    11    13   am
     6    13     1    1
     7     1     2    2
     8     2     3    1
     9     3     4    2
    10     4     5    1
    11     5     6    2
    12     6    24    1
    13    24    25   ar
    14    25    26   ar
    15    26    27   ar
    16    27    28    1
    17    27    29   ar
    18     6     7    1
    19     7     8    1
    20     8     9    2
    21    17    18    1
    22    18    19   ar
    23    19    20   ar
    24    20    21   ar
    25    21    22   ar
    26    22    23   ar
    27     9     1    1
    28    23    18   ar
    29     7     3    1
    30    29    24   ar
    31    10    14    1
    32    13    15    1
@<TRIPOS>MOLECULE
*****
 29 32 0 0 0
SMALL
GASTEIGER

@<TRIPOS>ATOM
      1 C         142.9714  142.0083  158.4359 C.2     1  UNL1        0.3298
      2 C         144.2201  141.7345  157.6512 C.2     1  UNL1        0.1070
      3 C         144.3845  140.4266  156.9356 C.2     1  UNL1        0.1012
      4 N         145.4955  139.8776  156.0904 N.2     1  UNL1       -0.1516
      5 N         145.0979  138.5041  155.6371 N.2     1  UNL1       -0.1517
      6 C         143.7412  138.2042  156.2021 C.2     1  UNL1        0.0968
      7 C         143.3002  139.3924  157.0046 C.3     1  UNL1        0.1533
      8 C         142.0516  139.6661  157.7893 C.2     1  UNL1        0.2205
      9 N         141.8871  140.9741  158.5049 N.2     1  UNL1       -0.0400
     10 N         142.6432  144.6641  161.3666 N.am    1  UNL1       -0.2666
     11 C         142.8077  143.3561  160.6510 C.2     1  UNL1        0.3927
     12 O         142.9728  142.0879  161.4348 O.2     1  UNL1       -0.2238
     13 N         142.8069  143.3163  159.1515 N.am    1  UNL1       -0.1531
     14 H         142.5348  145.4965  160.8522 H       1  UNL1        0.1533
     15 H         142.6985  144.1487  158.6371 H       1  UNL1        0.3030
     16 C         143.8977  145.0649  163.6061 C.3     1  UNL1        0.0263
     17 C         142.6439  144.7039  162.8661 C.3     1  UNL1        0.0977
     18 C         141.3909  144.3827  163.6255 C.ar    1  UNL1       -0.0044
     19 C         140.1127  145.0970  163.3000 C.ar    1  UNL1       -0.0027
     20 C         138.8596  144.7757  164.0595 C.ar    1  UNL1       -0.0003
     21 C         138.8848  143.7402  165.1443 C.ar    1  UNL1       -0.0000
     22 C         140.1630  143.0259  165.4697 C.ar    1  UNL1       -0.0003
     23 C         141.4160  143.3471  164.7103 C.ar    1  UNL1       -0.0027
     24 C         142.9621  136.9385  156.0002 C.ar    1  UNL1        0.0557
     25 C         141.5815  136.8355  155.4228 C.ar    1  UNL1        0.1229
     26 N         141.1929  135.3868  155.4059 N.ar    1  UNL1       -0.1676
     27 N         142.3334  134.5944  155.9729 N.ar    1  UNL1       -0.2473
     28 C         142.3735  133.1045  156.1428 C.3     1  UNL1        0.1538
     29 C         143.4268  135.5534  156.3402 C.ar    1  UNL1        0.0979
@<TRIPOS>BOND
     1    17    16    1
     2    17    10    1
     3    10    11   am
     4    11    12    2
     5    11    13   am
     6    13     1    1
     7     1     2    2
     8     2     3    1
     9     3     4    2
    10     4     5    1
    11     5     6    2
    12     6    24    1
    13    24    25   ar
    14    25    26   ar
    15    26    27   ar
    16    27    28    1
    17    27    29   ar
    18     6     7    1
    19     7     8    1
    20     8     9    2
    21    17    18    1
    22    18    19   ar
    23    19    20   ar
    24    20    21   ar
    25    21    22   ar
    26    22    23   ar
    27     9     1    1
    28    23    18   ar
    29     7     3    1
    30    29    24   ar
    31    10    14    1
    32    13    15    1
@<TRIPOS>MOLECULE
*****
 29 32 0 0 0
SMALL
GASTEIGER

@<TRIPOS>ATOM
      1 C         141.9827  140.5888  160.6660 C.2     1  UNL1        0.3298
      2 C         143.0642  140.9241  159.6823 C.2     1  UNL1        0.1070
      3 C         143.3434  140.0032  158.5317 C.2     1  UNL1        0.1012
      4 N         144.3384  140.0698  157.4112 N.2     1  UNL1       -0.1516
      5 N         144.1511  138.8547  156.5519 N.2     1  UNL1       -0.1517
      6 C         143.0402  138.0371  157.1413 C.2     1  UNL1        0.0968
      7 C         142.5410  138.7468  158.3649 C.3     1  UNL1        0.1533
      8 C         141.4595  138.4115  159.3486 C.2     1  UNL1        0.2205
      9 N         141.1804  139.3324  160.4992 N.2     1  UNL1       -0.0400
     10 N         142.3744  142.4920  164.1265 N.am    1  UNL1       -0.2666
     11 C         142.6536  141.5711  162.9758 C.2     1  UNL1        0.3927
     12 O         143.8828  140.7114  162.9844 O.2     1  UNL1       -0.2238
     13 N         141.7036  141.5097  161.8167 N.am    1  UNL1       -0.1531
     14 H         141.5676  143.0562  164.1209 H       1  UNL1        0.1533
     15 H         140.8968  142.0740  161.8111 H       1  UNL1        0.3030
     16 C         144.5116  143.4687  165.2347 C.3     1  UNL1        0.0263
     17 C         143.3244  142.5533  165.2856 C.3     1  UNL1        0.0977
     18 C         143.0872  141.6993  166.4958 C.ar    1  UNL1       -0.0044
     19 C         143.0892  142.3178  167.8623 C.ar    1  UNL1       -0.0027
     20 C         142.8520  141.4638  169.0724 C.ar    1  UNL1       -0.0003
     21 C         142.6128  139.9913  168.9160 C.ar    1  UNL1       -0.0000
     22 C         142.6108  139.3728  167.5495 C.ar    1  UNL1       -0.0003
     23 C         142.8480  140.2268  166.3394 C.ar    1  UNL1       -0.0027
     24 C         142.5198  136.7378  156.6019 C.ar    1  UNL1        0.0557
     25 C         141.3568  136.5729  155.6692 C.ar    1  UNL1        0.1229
     26 N         141.1892  135.1084  155.3913 N.ar    1  UNL1       -0.1676
     27 N         142.2489  134.3682  156.1524 N.ar    1  UNL1       -0.2473
     28 C         142.4508  132.8818  156.1633 C.3     1  UNL1        0.1538
     29 C         143.0712  135.3751  156.9006 C.ar    1  UNL1        0.0979
@<TRIPOS>BOND
     1    17    16    1
     2    17    10    1
     3    10    11   am
     4    11    12    2
     5    11    13   am
     6    13     1    1
     7     1     2    2
     8     2     3    1
     9     3     4    2
    10     4     5    1
    11     5     6    2
    12     6    24    1
    13    24    25   ar
    14    25    26   ar
    15    26    27   ar
    16    27    28    1
    17    27    29   ar
    18     6     7    1
    19     7     8    1
    20     8     9    2
    21    17    18    1
    22    18    19   ar
    23    19    20   ar
    24    20    21   ar
    25    21    22   ar
    26    22    23   ar
    27     9     1    1
    28    23    18   ar
    29     7     3    1
    30    29    24   ar
    31    10    14    1
    32    13    15    1
@<TRIPOS>MOLECULE
*****
 29 32 0 0 0
SMALL
GASTEIGER

@<TRIPOS>ATOM
      1 C         141.3782  143.6449  160.2520 C.2     1  UNL1        0.3298
      2 C         140.6838  142.8063  159.2203 C.2     1  UNL1        0.1070
      3 C         140.1323  143.4463  157.9809 C.2     1  UNL1        0.1012
      4 N         139.4040  142.8803  156.7980 N.2     1  UNL1       -0.1516
      5 N         139.0967  144.0091  155.8592 N.2     1  UNL1       -0.1517
      6 C         139.6351  145.2728  156.4619 C.2     1  UNL1        0.0968
      7 C         140.2751  144.9249  157.7732 C.3     1  UNL1        0.1533
      8 C         140.9695  145.7636  158.8049 C.2     1  UNL1        0.2205
      9 N         141.5210  145.1236  160.0443 N.2     1  UNL1       -0.0400
     10 N         141.5713  142.0494  163.8807 N.am    1  UNL1       -0.2666
     11 C         141.0197  142.6894  162.6412 C.2     1  UNL1        0.3927
     12 O         139.5579  143.0139  162.5516 O.2     1  UNL1       -0.2238
     13 N         141.9298  143.0049  161.4914 N.am    1  UNL1       -0.1531
     14 H         142.5306  141.8365  163.9395 H       1  UNL1        0.1533
     15 H         142.8892  142.7919  161.5503 H       1  UNL1        0.3030
     16 C         140.3550  142.7858  166.0551 C.3     1  UNL1        0.0263
     17 C         140.6611  141.7339  165.0305 C.3     1  UNL1        0.0977
     18 C         140.0571  140.3666  165.1557 C.ar    1  UNL1       -0.0044
     19 C         140.7738  139.1757  164.5919 C.ar    1  UNL1       -0.0027
     20 C         140.1697  137.8084  164.7170 C.ar    1  UNL1       -0.0003
     21 C         138.8491  137.6321  165.4059 C.ar    1  UNL1       -0.0000
     22 C         138.1324  138.8231  165.9697 C.ar    1  UNL1       -0.0003
     23 C         138.7364  140.1903  165.8446 C.ar    1  UNL1       -0.0027
     24 C         139.5487  146.6436  155.8592 C.ar    1  UNL1        0.0557
     25 C         140.1456  147.0710  154.5512 C.ar    1  UNL1        0.1229
     26 N         139.8160  148.5193  154.3423 N.ar    1  UNL1       -0.1676
     27 N         139.0153  148.9871  155.5213 N.ar    1  UNL1       -0.2473
     28 C         138.4746  150.3712  155.7268 C.3     1  UNL1        0.1538
     29 C         138.8501  147.8279  156.4588 C.ar    1  UNL1        0.0979
@<TRIPOS>BOND
     1    17    16    1
     2    17    10    1
     3    10    11   am
     4    11    12    2
     5    11    13   am
     6    13     1    1
     7     1     2    2
     8     2     3    1
     9     3     4    2
    10     4     5    1
    11     5     6    2
    12     6    24    1
    13    24    25   ar
    14    25    26   ar
    15    26    27   ar
    16    27    28    1
    17    27    29   ar
    18     6     7    1
    19     7     8    1
    20     8     9    2
    21    17    18    1
    22    18    19   ar
    23    19    20   ar
    24    20    21   ar
    25    21    22   ar
    26    22    23   ar
    27     9     1    1
    28    23    18   ar
    29     7     3    1
    30    29    24   ar
    31    10    14    1
    32    13    15    1
@<TRIPOS>MOLECULE
*****
 29 32 0 0 0
SMALL
GASTEIGER

@<TRIPOS>ATOM
      1 C         139.4387  143.7787  163.2635 C.2     1  UNL1        0.3298
      2 C         138.6264  142.5343  163.0593 C.2     1  UNL1        0.1070
      3 C         138.6098  141.4681  164.1142 C.2     1  UNL1        0.1012
      4 N         137.9087  140.1443  164.1923 N.2     1  UNL1       -0.1516
      5 N         138.2711  139.5043  165.4996 N.2     1  UNL1       -0.1517
      6 C         139.1961  140.4325  166.2294 C.2     1  UNL1        0.0968
      7 C         139.4054  141.6462  165.3732 C.3     1  UNL1        0.1533
      8 C         140.2178  142.8906  165.5774 C.2     1  UNL1        0.2205
      9 N         140.2344  143.9568  164.5225 N.2     1  UNL1       -0.0400
     10 N         140.0513  145.6193  159.8011 N.am    1  UNL1       -0.2666
     11 C         140.0346  144.5530  160.8561 C.2     1  UNL1        0.3927
     12 O         140.5971  143.1947  160.5584 O.2     1  UNL1       -0.2238
     13 N         139.4554  144.8450  162.2085 N.am    1  UNL1       -0.1531
     14 H         139.6821  146.5108  159.9965 H       1  UNL1        0.1533
     15 H         139.0862  145.7365  162.4039 H       1  UNL1        0.3030
     16 C         142.1079  145.1196  158.2945 C.3     1  UNL1        0.0263
     17 C         140.6304  145.3272  158.4487 C.3     1  UNL1        0.0977
     18 C         139.7321  145.2428  157.2504 C.ar    1  UNL1       -0.0044
     19 C         139.4556  146.4693  156.4324 C.ar    1  UNL1       -0.0027
     20 C         138.5573  146.3849  155.2341 C.ar    1  UNL1       -0.0003
     21 C         137.9354  145.0740  154.8538 C.ar    1  UNL1       -0.0000
     22 C         138.2119  143.8475  155.6718 C.ar    1  UNL1       -0.0003
     23 C         139.1102  143.9319  156.8701 C.ar    1  UNL1       -0.0027
     24 C         139.8049  140.1897  167.5787 C.ar    1  UNL1        0.0557
     25 C         139.0569  140.0487  168.8711 C.ar    1  UNL1        0.1229
     26 N         140.0583  139.8171  169.9636 N.ar    1  UNL1       -0.1676
     27 N         141.4254  139.8150  169.3462 N.ar    1  UNL1       -0.2473
     28 C         142.7216  139.6173  170.0749 C.3     1  UNL1        0.1538
     29 C         141.2688  140.0453  167.8722 C.ar    1  UNL1        0.0979
@<TRIPOS>BOND
     1    17    16    1
     2    17    10    1
     3    10    11   am
     4    11    12    2
     5    11    13   am
     6    13     1    1
     7     1     2    2
     8     2     3    1
     9     3     4    2
    10     4     5    1
    11     5     6    2
    12     6    24    1
    13    24    25   ar
    14    25    26   ar
    15    26    27   ar
    16    27    28    1
    17    27    29   ar
    18     6     7    1
    19     7     8    1
    20     8     9    2
    21    17    18    1
    22    18    19   ar
    23    19    20   ar
    24    20    21   ar
    25    21    22   ar
    26    22    23   ar
    27     9     1    1
    28    23    18   ar
    29     7     3    1
    30    29    24   ar
    31    10    14    1
    32    13    15    1
