@<TRIPOS>MOLECULE
*****
 37 40 0 0 0
SMALL
GASTEIGER

@<TRIPOS>ATOM
      1 O         142.9522  140.8767  166.1373 O.3     1  UNL1       -0.4741
      2 C         142.6718  141.7965  164.9861 C.ar    1  UNL1        0.1513
      3 C         141.6305  141.4307  163.9702 C.ar    1  UNL1        0.0688
      4 C         141.3501  142.3506  162.8190 C.ar    1  UNL1        0.1620
      5 F         140.3088  141.9849  161.8032 F       1  UNL1       -0.2026
      6 C         142.1110  143.6361  162.6836 C.ar    1  UNL1        0.1535
      7 C         143.1523  144.0019  163.6995 C.ar    1  UNL1        0.0369
      8 C         143.4327  143.0821  164.8507 C.ar    1  UNL1        0.0930
      9 CL        144.4740  143.4478  165.8665 Cl      1  UNL1       -0.0790
     10 S         141.8306  144.5559  161.5325 S.O2    1  UNL1        0.0769
     11 O         143.0010  143.9831  160.7896 O.2     1  UNL1       -0.1498
     12 O         140.6601  145.1288  162.2753 O.2     1  UNL1       -0.1498
     13 N         141.5502  145.4758  160.3812 N.pl3   1  UNL1       -0.1984
     14 H         141.8508  146.4126  160.4151 H       1  UNL1        0.1753
     15 C         140.8118  144.9681  159.1782 C.ar    1  UNL1        0.1542
     16 C         140.7820  145.6137  157.8246 C.ar    1  UNL1        0.0725
     17 S         139.9254  144.7703  156.9275 S.2     1  UNL1       -0.0625
     18 C         139.4257  143.6034  157.7266 C.ar    1  UNL1        0.1360
     19 N         139.9735  143.7256  159.1177 N.ar    1  UNL1       -0.2203
     20 C         142.0374  139.7205  166.4136 C.3     1  UNL1        0.2110
     21 C         141.4784  140.0023  168.9351 C.3     1  UNL1        0.0620
     22 C         140.4672  140.0933  170.0392 C.3     1  UNL1        0.0208
     23 C         139.0037  139.9934  169.7260 C.3     1  UNL1        0.0271
     24 C         138.5514  139.8025  168.3086 C.2     1  UNL1       -0.0302
     25 C         139.5626  139.7115  167.2045 C.2     1  UNL1       -0.0218
     26 C         141.0261  139.8114  167.5178 C.3     1  UNL1        0.0801
     27 C         139.1103  139.5206  165.7871 C.ar    1  UNL1       -0.0040
     28 C         139.3657  138.2188  165.0872 C.ar    1  UNL1        0.0020
     29 C         138.9134  138.0279  163.6698 C.ar    1  UNL1        0.0296
     30 C         138.2058  139.1389  162.9522 C.ar    1  UNL1        0.1401
     31 F         137.7535  138.9481  161.5349 F       1  UNL1       -0.2042
     32 C         137.9504  140.4408  163.6522 C.ar    1  UNL1        0.0296
     33 C         138.4027  140.6317  165.0696 C.ar    1  UNL1        0.0020
     34 N         142.9419  140.1022  169.2484 N.3     1  UNL1       -0.2982
     35 H         143.2040  139.2320  169.7113 H       1  UNL1        0.1232
     36 C         143.7588  142.5558  169.4991 C.3     1  UNL1        0.0185
     37 C         143.4500  141.2207  170.1091 C.3     1  UNL1        0.0686
@<TRIPOS>BOND
     1    36    37    1
     2    37    34    1
     3    21    34    1
     4    21    22    1
     5    22    23    1
     6    23    24    1
     7    24    25    2
     8    25    27    1
     9    27    28   ar
    10    28    29   ar
    11    29    30   ar
    12    30    31    1
    13    30    32   ar
    14    32    33   ar
    15    25    26    1
    16    26    20    1
    17    20     1    1
    18     1     2    1
    19     2     3   ar
    20     3     4   ar
    21     4     5    1
    22     4     6   ar
    23     6    10    1
    24    10    11    2
    25    10    12    2
    26    10    13    1
    27    13    15    1
    28    15    16   ar
    29    16    17   ar
    30    17    18   ar
    31    18    19   ar
    32     6     7   ar
    33     7     8   ar
    34     8     9    1
    35    26    21    1
    36     8     2   ar
    37    33    27   ar
    38    19    15   ar
    39    34    35    1
    40    13    14    1
@<TRIPOS>MOLECULE
*****
 37 40 0 0 0
SMALL
GASTEIGER

@<TRIPOS>ATOM
      1 O         138.9285  141.5716  165.6437 O.3     1  UNL1       -0.4741
      2 C         139.5054  142.3660  164.5097 C.ar    1  UNL1        0.1513
      3 C         140.8396  143.0338  164.6641 C.ar    1  UNL1        0.0688
      4 C         141.4164  143.8282  163.5300 C.ar    1  UNL1        0.1620
      5 F         142.7507  144.4961  163.6844 F       1  UNL1       -0.2026
      6 C         140.6591  143.9548  162.2414 C.ar    1  UNL1        0.1535
      7 C         139.3249  143.2869  162.0870 C.ar    1  UNL1        0.0369
      8 C         138.7480  142.4925  163.2210 C.ar    1  UNL1        0.0930
      9 CL        137.4138  141.8247  163.0666 Cl      1  UNL1       -0.0790
     10 S         141.2360  144.7492  161.1074 S.O2    1  UNL1        0.0769
     11 O         142.1331  143.5990  160.7581 O.2     1  UNL1       -0.1498
     12 O         140.3388  145.8994  161.4567 O.2     1  UNL1       -0.1498
     13 N         141.8129  145.5435  159.9732 N.pl3   1  UNL1       -0.1984
     14 H         142.5407  146.1848  160.1416 H       1  UNL1        0.1753
     15 C         141.2809  145.3608  158.5827 C.ar    1  UNL1        0.1542
     16 C         141.9134  145.8722  157.3224 C.ar    1  UNL1        0.0725
     17 S         141.0465  145.4621  156.1691 S.2     1  UNL1       -0.0625
     18 C         139.8781  144.6972  156.7166 C.ar    1  UNL1        0.1360
     19 N         140.0229  144.6345  158.2083 N.ar    1  UNL1       -0.2203
     20 C         139.1591  140.0912  165.7160 C.3     1  UNL1        0.2110
     21 C         141.1237  138.6739  164.7770 C.3     1  UNL1        0.0620
     22 C         142.5182  138.1377  164.9099 C.3     1  UNL1        0.0208
     23 C         143.3428  138.4825  166.1146 C.3     1  UNL1        0.0271
     24 C         142.7727  139.3635  167.1864 C.2     1  UNL1       -0.0302
     25 C         141.3782  139.8997  167.0536 C.2     1  UNL1       -0.0218
     26 C         140.5537  139.5549  165.8489 C.3     1  UNL1        0.0801
     27 C         140.8081  140.7808  168.1254 C.ar    1  UNL1       -0.0040
     28 C         139.8463  140.2156  169.1281 C.ar    1  UNL1        0.0020
     29 C         139.2762  141.0966  170.1999 C.ar    1  UNL1        0.0296
     30 C         139.6679  142.5429  170.2690 C.ar    1  UNL1        0.1401
     31 F         139.0979  143.4240  171.3408 F       1  UNL1       -0.2042
     32 C         140.6298  143.1081  169.2663 C.ar    1  UNL1        0.0296
     33 C         141.1998  142.2271  168.1945 C.ar    1  UNL1        0.0020
     34 N         140.2992  138.3291  163.5723 N.3     1  UNL1       -0.2982
     35 H         140.6117  137.4117  163.2544 H       1  UNL1        0.1232
     36 C         141.4577  140.1706  162.1522 C.3     1  UNL1        0.0185
     37 C         140.3103  139.2299  162.3730 C.3     1  UNL1        0.0686
@<TRIPOS>BOND
     1    36    37    1
     2    37    34    1
     3    21    34    1
     4    21    22    1
     5    22    23    1
     6    23    24    1
     7    24    25    2
     8    25    27    1
     9    27    28   ar
    10    28    29   ar
    11    29    30   ar
    12    30    31    1
    13    30    32   ar
    14    32    33   ar
    15    25    26    1
    16    26    20    1
    17    20     1    1
    18     1     2    1
    19     2     3   ar
    20     3     4   ar
    21     4     5    1
    22     4     6   ar
    23     6    10    1
    24    10    11    2
    25    10    12    2
    26    10    13    1
    27    13    15    1
    28    15    16   ar
    29    16    17   ar
    30    17    18   ar
    31    18    19   ar
    32     6     7   ar
    33     7     8   ar
    34     8     9    1
    35    26    21    1
    36     8     2   ar
    37    33    27   ar
    38    19    15   ar
    39    34    35    1
    40    13    14    1
@<TRIPOS>MOLECULE
*****
 37 40 0 0 0
SMALL
GASTEIGER

@<TRIPOS>ATOM
      1 O         140.8802  139.6649  165.2696 O.3     1  UNL1       -0.4741
      2 C         141.3316  139.4853  163.8505 C.ar    1  UNL1        0.1513
      3 C         141.6581  140.6840  163.0098 C.ar    1  UNL1        0.0688
      4 C         142.1095  140.5043  161.5906 C.ar    1  UNL1        0.1620
      5 F         142.4359  141.7029  160.7500 F       1  UNL1       -0.2026
      6 C         142.2345  139.1260  161.0122 C.ar    1  UNL1        0.1535
      7 C         141.9080  137.9274  161.8528 C.ar    1  UNL1        0.0369
      8 C         141.4566  138.1070  163.2719 C.ar    1  UNL1        0.0930
      9 CL        141.1302  136.9083  164.1125 Cl      1  UNL1       -0.0790
     10 S         142.6858  138.9464  159.5930 S.O2    1  UNL1        0.0769
     11 O         141.2797  139.1635  159.1183 O.2     1  UNL1       -0.1498
     12 O         144.0920  138.7293  160.0678 O.2     1  UNL1       -0.1498
     13 N         143.1372  138.7668  158.1738 N.pl3   1  UNL1       -0.1984
     14 H         143.7076  139.4474  157.7488 H       1  UNL1        0.1753
     15 C         142.7195  137.5501  157.4023 C.ar    1  UNL1        0.1542
     16 C         141.6930  137.5086  156.3094 C.ar    1  UNL1        0.0725
     17 S         141.5940  136.0942  155.8198 S.2     1  UNL1       -0.0625
     18 C         142.5595  135.2615  156.6101 C.ar    1  UNL1        0.1360
     19 N         143.2551  136.1613  157.5882 N.ar    1  UNL1       -0.2203
     20 C         139.5018  140.1811  165.5585 C.3     1  UNL1        0.2110
     21 C         138.0241  141.6979  164.0532 C.3     1  UNL1        0.0620
     22 C         137.6212  143.0642  163.5834 C.3     1  UNL1        0.0208
     23 C         138.2931  144.2802  164.1490 C.3     1  UNL1        0.0271
     24 C         139.3678  144.1299  165.1845 C.2     1  UNL1       -0.0302
     25 C         139.7707  142.7635  165.6543 C.2     1  UNL1       -0.0218
     26 C         139.0989  141.5475  165.0887 C.3     1  UNL1        0.0801
     27 C         140.8455  142.6131  166.6899 C.ar    1  UNL1       -0.0040
     28 C         142.2802  142.4915  166.2695 C.ar    1  UNL1        0.0020
     29 C         143.3551  142.3411  167.3050 C.ar    1  UNL1        0.0296
     30 C         142.9950  142.3123  168.7609 C.ar    1  UNL1        0.1401
     31 F         144.0698  142.1620  169.7964 F       1  UNL1       -0.2042
     32 C         141.5602  142.4340  169.1813 C.ar    1  UNL1        0.0296
     33 C         140.4855  142.5844  168.1457 C.ar    1  UNL1        0.0020
     34 N         137.3523  140.4819  163.4875 N.3     1  UNL1       -0.2982
     35 H         137.3984  139.7591  164.2057 H       1  UNL1        0.1232
     36 C         138.0366  138.3781  162.1253 C.3     1  UNL1        0.0185
     37 C         137.8624  139.8650  162.2190 C.3     1  UNL1        0.0686
@<TRIPOS>BOND
     1    36    37    1
     2    37    34    1
     3    21    34    1
     4    21    22    1
     5    22    23    1
     6    23    24    1
     7    24    25    2
     8    25    27    1
     9    27    28   ar
    10    28    29   ar
    11    29    30   ar
    12    30    31    1
    13    30    32   ar
    14    32    33   ar
    15    25    26    1
    16    26    20    1
    17    20     1    1
    18     1     2    1
    19     2     3   ar
    20     3     4   ar
    21     4     5    1
    22     4     6   ar
    23     6    10    1
    24    10    11    2
    25    10    12    2
    26    10    13    1
    27    13    15    1
    28    15    16   ar
    29    16    17   ar
    30    17    18   ar
    31    18    19   ar
    32     6     7   ar
    33     7     8   ar
    34     8     9    1
    35    26    21    1
    36     8     2   ar
    37    33    27   ar
    38    19    15   ar
    39    34    35    1
    40    13    14    1
@<TRIPOS>MOLECULE
*****
 37 40 0 0 0
SMALL
GASTEIGER

@<TRIPOS>ATOM
      1 O         141.1301  139.5811  165.6060 O.3     1  UNL1       -0.4741
      2 C         141.5565  139.4666  164.1725 C.ar    1  UNL1        0.1513
      3 C         141.9970  140.6879  163.4212 C.ar    1  UNL1        0.0688
      4 C         142.4234  140.5734  161.9876 C.ar    1  UNL1        0.1620
      5 F         142.8639  141.7947  161.2364 F       1  UNL1       -0.2026
      6 C         142.4094  139.2376  161.3054 C.ar    1  UNL1        0.1535
      7 C         141.9689  138.0163  162.0566 C.ar    1  UNL1        0.0369
      8 C         141.5424  138.1308  163.4902 C.ar    1  UNL1        0.0930
      9 CL        141.1019  136.9095  164.2414 Cl      1  UNL1       -0.0790
     10 S         142.8358  139.1232  159.8719 S.O2    1  UNL1        0.0769
     11 O         144.2244  138.7672  160.3134 O.2     1  UNL1       -0.1498
     12 O         141.4472  139.4791  159.4304 O.2     1  UNL1       -0.1498
     13 N         143.2623  139.0087  158.4383 N.pl3   1  UNL1       -0.1984
     14 H         142.9973  138.2233  157.9071 H       1  UNL1        0.1753
     15 C         144.0925  140.0909  157.8141 C.ar    1  UNL1        0.1542
     16 C         144.1326  141.5283  158.2409 C.ar    1  UNL1        0.0725
     17 S         145.0933  142.2515  157.3441 S.2     1  UNL1       -0.0625
     18 C         145.6468  141.2610  156.3630 C.ar    1  UNL1        0.1360
     19 N         145.0283  139.9256  156.6535 N.ar    1  UNL1       -0.2203
     20 C         139.7516  140.0679  165.9419 C.3     1  UNL1        0.2110
     21 C         138.2292  141.4520  164.3554 C.3     1  UNL1        0.0620
     22 C         137.7561  142.7786  163.8395 C.3     1  UNL1        0.0208
     23 C         138.3320  144.0478  164.3941 C.3     1  UNL1        0.0271
     24 C         139.3811  143.9903  165.4646 C.2     1  UNL1       -0.0302
     25 C         139.8543  142.6637  165.9805 C.2     1  UNL1       -0.0218
     26 C         139.2784  141.3946  165.4259 C.3     1  UNL1        0.0801
     27 C         140.9034  142.6062  167.0511 C.ar    1  UNL1       -0.0040
     28 C         142.3397  142.3806  166.6823 C.ar    1  UNL1        0.0020
     29 C         143.3889  142.3231  167.7528 C.ar    1  UNL1        0.0296
     30 C         143.0017  142.4913  169.1922 C.ar    1  UNL1        0.1401
     31 F         144.0508  142.4338  170.2627 F       1  UNL1       -0.2042
     32 C         141.5653  142.7169  169.5610 C.ar    1  UNL1        0.0296
     33 C         140.5162  142.7744  168.4905 C.ar    1  UNL1        0.0020
     34 N         137.6533  140.1829  163.8008 N.3     1  UNL1       -0.2982
     35 H         137.8777  139.4426  164.4656 H       1  UNL1        0.1232
     36 C         138.1247  138.2222  162.1626 C.3     1  UNL1        0.0185
     37 C         138.0796  139.6941  162.4483 C.3     1  UNL1        0.0686
@<TRIPOS>BOND
     1    36    37    1
     2    37    34    1
     3    21    34    1
     4    21    22    1
     5    22    23    1
     6    23    24    1
     7    24    25    2
     8    25    27    1
     9    27    28   ar
    10    28    29   ar
    11    29    30   ar
    12    30    31    1
    13    30    32   ar
    14    32    33   ar
    15    25    26    1
    16    26    20    1
    17    20     1    1
    18     1     2    1
    19     2     3   ar
    20     3     4   ar
    21     4     5    1
    22     4     6   ar
    23     6    10    1
    24    10    11    2
    25    10    12    2
    26    10    13    1
    27    13    15    1
    28    15    16   ar
    29    16    17   ar
    30    17    18   ar
    31    18    19   ar
    32     6     7   ar
    33     7     8   ar
    34     8     9    1
    35    26    21    1
    36     8     2   ar
    37    33    27   ar
    38    19    15   ar
    39    34    35    1
    40    13    14    1
@<TRIPOS>MOLECULE
*****
 37 40 0 0 0
SMALL
GASTEIGER

@<TRIPOS>ATOM
      1 O         142.4208  141.2560  165.7340 O.3     1  UNL1       -0.4741
      2 C         142.5463  140.5207  164.4326 C.ar    1  UNL1        0.1513
      3 C         141.8516  141.0389  163.2084 C.ar    1  UNL1        0.0688
      4 C         141.9771  140.3035  161.9070 C.ar    1  UNL1        0.1620
      5 F         141.2824  140.8216  160.6827 F       1  UNL1       -0.2026
      6 C         142.7974  139.0500  161.8299 C.ar    1  UNL1        0.1535
      7 C         143.4922  138.5319  163.0542 C.ar    1  UNL1        0.0369
      8 C         143.3667  139.2672  164.3555 C.ar    1  UNL1        0.0930
      9 CL        144.0614  138.7491  165.5798 Cl      1  UNL1       -0.0790
     10 S         142.9230  138.3147  160.5286 S.O2    1  UNL1        0.0769
     11 O         144.1983  139.0485  160.2370 O.2     1  UNL1       -0.1498
     12 O         141.6476  137.5810  160.8201 O.2     1  UNL1       -0.1498
     13 N         143.0485  137.5794  159.2272 N.pl3   1  UNL1       -0.1984
     14 H         143.6465  136.8004  159.1576 H       1  UNL1        0.1753
     15 C         142.2630  138.0311  158.0317 C.ar    1  UNL1        0.1542
     16 C         141.7504  137.1517  156.9300 C.ar    1  UNL1        0.0725
     17 S         141.0228  138.0185  155.9455 S.2     1  UNL1       -0.0625
     18 C         141.0857  139.4336  156.4388 C.ar    1  UNL1        0.1360
     19 N         141.8522  139.4415  157.7282 N.ar    1  UNL1       -0.2203
     20 C         141.1043  141.8535  166.1339 C.3     1  UNL1        0.2110
     21 C         140.5236  141.8431  168.6662 C.3     1  UNL1        0.0620
     22 C         139.7587  141.2678  169.8212 C.3     1  UNL1        0.0208
     23 C         138.8099  140.1275  169.5989 C.3     1  UNL1        0.0271
     24 C         138.6258  139.5625  168.2216 C.2     1  UNL1       -0.0302
     25 C         139.3907  140.1379  167.0666 C.2     1  UNL1       -0.0218
     26 C         140.3395  141.2782  167.2889 C.3     1  UNL1        0.0801
     27 C         139.2066  139.5729  165.6893 C.ar    1  UNL1       -0.0040
     28 C         139.9057  138.3044  165.2994 C.ar    1  UNL1        0.0020
     29 C         139.7217  137.7395  163.9220 C.ar    1  UNL1        0.0296
     30 C         138.8386  138.4431  162.9346 C.ar    1  UNL1        0.1401
     31 F         138.6545  137.8783  161.5573 F       1  UNL1       -0.2042
     32 C         138.1395  139.7117  163.3246 C.ar    1  UNL1        0.0296
     33 C         138.3235  140.2766  164.7019 C.ar    1  UNL1        0.0020
     34 N         141.4724  142.9834  168.8885 N.3     1  UNL1       -0.2982
     35 H         141.9979  143.1023  168.0224 H       1  UNL1        0.1232
     36 C         143.8143  142.2771  169.7640 C.3     1  UNL1        0.0185
     37 C         142.4781  142.9166  169.9994 C.3     1  UNL1        0.0686
@<TRIPOS>BOND
     1    36    37    1
     2    37    34    1
     3    21    34    1
     4    21    22    1
     5    22    23    1
     6    23    24    1
     7    24    25    2
     8    25    27    1
     9    27    28   ar
    10    28    29   ar
    11    29    30   ar
    12    30    31    1
    13    30    32   ar
    14    32    33   ar
    15    25    26    1
    16    26    20    1
    17    20     1    1
    18     1     2    1
    19     2     3   ar
    20     3     4   ar
    21     4     5    1
    22     4     6   ar
    23     6    10    1
    24    10    11    2
    25    10    12    2
    26    10    13    1
    27    13    15    1
    28    15    16   ar
    29    16    17   ar
    30    17    18   ar
    31    18    19   ar
    32     6     7   ar
    33     7     8   ar
    34     8     9    1
    35    26    21    1
    36     8     2   ar
    37    33    27   ar
    38    19    15   ar
    39    34    35    1
    40    13    14    1
@<TRIPOS>MOLECULE
*****
 37 40 0 0 0
SMALL
GASTEIGER

@<TRIPOS>ATOM
      1 O         139.0374  141.7873  165.7459 O.3     1  UNL1       -0.4741
      2 C         139.5373  142.5632  164.5635 C.ar    1  UNL1        0.1513
      3 C         140.5787  143.6265  164.7502 C.ar    1  UNL1        0.0688
      4 C         141.0787  144.4024  163.5678 C.ar    1  UNL1        0.1620
      5 F         142.1200  145.4658  163.7544 F       1  UNL1       -0.2026
      6 C         140.5373  144.1150  162.1987 C.ar    1  UNL1        0.1535
      7 C         139.4959  143.0516  162.0121 C.ar    1  UNL1        0.0369
      8 C         138.9960  142.2757  163.1944 C.ar    1  UNL1        0.0930
      9 CL        137.9546  141.2123  163.0078 Cl      1  UNL1       -0.0790
     10 S         141.0373  144.8908  161.0164 S.O2    1  UNL1        0.0769
     11 O         142.3701  144.2131  161.1352 O.2     1  UNL1       -0.1498
     12 O         139.7045  145.5686  160.8976 O.2     1  UNL1       -0.1498
     13 N         141.5373  145.6667  159.8340 N.pl3   1  UNL1       -0.1984
     14 H         142.1307  146.4408  159.9684 H       1  UNL1        0.1753
     15 C         141.1333  145.2632  158.4469 C.ar    1  UNL1        0.1542
     16 C         140.3602  146.1035  157.4742 C.ar    1  UNL1        0.0725
     17 S         140.1805  145.3082  156.2151 S.2     1  UNL1       -0.0625
     18 C         140.8427  143.9764  156.4097 C.ar    1  UNL1        0.1360
     19 N         141.4316  143.9486  157.7890 N.ar    1  UNL1       -0.2203
     20 C         139.2623  140.3061  165.8205 C.3     1  UNL1        0.2110
     21 C         141.1573  139.9085  167.5527 C.3     1  UNL1        0.0620
     22 C         142.5169  139.3725  167.8906 C.3     1  UNL1        0.0208
     23 C         143.3410  138.6980  166.8343 C.3     1  UNL1        0.0271
     24 C         142.8055  138.5595  165.4400 C.2     1  UNL1       -0.0302
     25 C         141.4460  139.0956  165.1021 C.2     1  UNL1       -0.0218
     26 C         140.6219  139.7701  166.1585 C.3     1  UNL1        0.0801
     27 C         140.9104  138.9571  163.7078 C.ar    1  UNL1       -0.0040
     28 C         141.4820  139.7896  162.5987 C.ar    1  UNL1        0.0020
     29 C         140.9465  139.6512  161.2043 C.ar    1  UNL1        0.0296
     30 C         139.8393  138.6802  160.9192 C.ar    1  UNL1        0.1401
     31 F         139.3038  138.5417  159.5249 F       1  UNL1       -0.2042
     32 C         139.2677  137.8476  162.0283 C.ar    1  UNL1        0.0296
     33 C         139.8032  137.9861  163.4226 C.ar    1  UNL1        0.0020
     34 N         140.3333  140.5830  168.6091 N.3     1  UNL1       -0.2982
     35 H         139.4491  140.8425  168.1718 H       1  UNL1        0.1232
     36 C         140.5179  143.1703  168.7575 C.3     1  UNL1        0.0185
     37 C         140.8534  141.8110  169.2958 C.3     1  UNL1        0.0686
@<TRIPOS>BOND
     1    36    37    1
     2    37    34    1
     3    21    34    1
     4    21    22    1
     5    22    23    1
     6    23    24    1
     7    24    25    2
     8    25    27    1
     9    27    28   ar
    10    28    29   ar
    11    29    30   ar
    12    30    31    1
    13    30    32   ar
    14    32    33   ar
    15    25    26    1
    16    26    20    1
    17    20     1    1
    18     1     2    1
    19     2     3   ar
    20     3     4   ar
    21     4     5    1
    22     4     6   ar
    23     6    10    1
    24    10    11    2
    25    10    12    2
    26    10    13    1
    27    13    15    1
    28    15    16   ar
    29    16    17   ar
    30    17    18   ar
    31    18    19   ar
    32     6     7   ar
    33     7     8   ar
    34     8     9    1
    35    26    21    1
    36     8     2   ar
    37    33    27   ar
    38    19    15   ar
    39    34    35    1
    40    13    14    1
@<TRIPOS>MOLECULE
*****
 37 40 0 0 0
SMALL
GASTEIGER

@<TRIPOS>ATOM
      1 O         139.4707  142.0554  165.4151 O.3     1  UNL1       -0.4741
      2 C         139.2469  141.6400  163.9913 C.ar    1  UNL1        0.1513
      3 C         140.0100  140.4825  163.4189 C.ar    1  UNL1        0.0688
      4 C         139.7862  140.0672  161.9950 C.ar    1  UNL1        0.1620
      5 F         140.5493  138.9096  161.4226 F       1  UNL1       -0.2026
      6 C         138.7992  140.8093  161.1436 C.ar    1  UNL1        0.1535
      7 C         138.0360  141.9669  161.7160 C.ar    1  UNL1        0.0369
      8 C         138.2598  142.3822  163.1398 C.ar    1  UNL1        0.0930
      9 CL        137.4967  143.5398  163.7122 Cl      1  UNL1       -0.0790
     10 S         138.5753  140.3940  159.7198 S.O2    1  UNL1        0.0769
     11 O         137.2409  139.8219  160.0964 O.2     1  UNL1       -0.1498
     12 O         139.9098  140.9661  159.3431 O.2     1  UNL1       -0.1498
     13 N         138.3514  139.9786  158.2959 N.pl3   1  UNL1       -0.1984
     14 H         138.5848  139.0669  158.0065 H       1  UNL1        0.1753
     15 C         137.7721  140.9522  157.3128 C.ar    1  UNL1        0.1542
     16 C         137.1744  140.6096  155.9804 C.ar    1  UNL1        0.0725
     17 S         136.7216  141.8851  155.3337 S.2     1  UNL1       -0.0625
     18 C         137.0394  143.0160  156.2665 C.ar    1  UNL1        0.1360
     19 N         137.6887  142.4395  157.4897 N.ar    1  UNL1       -0.2203
     20 C         140.2742  143.2847  165.7203 C.3     1  UNL1        0.2110
     21 C         141.6062  144.5771  163.9022 C.3     1  UNL1        0.0620
     22 C         142.8894  144.8354  163.1696 C.3     1  UNL1        0.0208
     23 C         144.1237  144.0595  163.5224 C.3     1  UNL1        0.0271
     24 C         144.0749  143.0255  164.6079 C.2     1  UNL1       -0.0302
     25 C         142.7918  142.7672  165.3405 C.2     1  UNL1       -0.0218
     26 C         141.5574  143.5430  164.9876 C.3     1  UNL1        0.0801
     27 C         142.7429  141.7331  166.4260 C.ar    1  UNL1       -0.0040
     28 C         142.8622  142.1476  167.8626 C.ar    1  UNL1        0.0020
     29 C         142.8133  141.1134  168.9481 C.ar    1  UNL1        0.0296
     30 C         142.6452  139.6648  168.5969 C.ar    1  UNL1        0.1401
     31 F         142.5964  138.6307  169.6824 F       1  UNL1       -0.2042
     32 C         142.5259  139.2504  167.1602 C.ar    1  UNL1        0.0296
     33 C         142.5748  140.2845  166.0748 C.ar    1  UNL1        0.0020
     34 N         140.3719  145.3529  163.5494 N.3     1  UNL1       -0.2982
     35 H         139.5786  144.7308  163.7046 H       1  UNL1        0.1232
     36 C         140.0308  145.0058  160.9973 C.3     1  UNL1        0.0185
     37 C         140.2123  145.9222  162.1708 C.3     1  UNL1        0.0686
@<TRIPOS>BOND
     1    36    37    1
     2    37    34    1
     3    21    34    1
     4    21    22    1
     5    22    23    1
     6    23    24    1
     7    24    25    2
     8    25    27    1
     9    27    28   ar
    10    28    29   ar
    11    29    30   ar
    12    30    31    1
    13    30    32   ar
    14    32    33   ar
    15    25    26    1
    16    26    20    1
    17    20     1    1
    18     1     2    1
    19     2     3   ar
    20     3     4   ar
    21     4     5    1
    22     4     6   ar
    23     6    10    1
    24    10    11    2
    25    10    12    2
    26    10    13    1
    27    13    15    1
    28    15    16   ar
    29    16    17   ar
    30    17    18   ar
    31    18    19   ar
    32     6     7   ar
    33     7     8   ar
    34     8     9    1
    35    26    21    1
    36     8     2   ar
    37    33    27   ar
    38    19    15   ar
    39    34    35    1
    40    13    14    1
@<TRIPOS>MOLECULE
*****
 37 40 0 0 0
SMALL
GASTEIGER

@<TRIPOS>ATOM
      1 O         138.6539  142.5407  165.0489 O.3     1  UNL1       -0.4741
      2 C         138.6037  142.0436  163.6345 C.ar    1  UNL1        0.1513
      3 C         139.0523  140.6487  163.3134 C.ar    1  UNL1        0.0688
      4 C         139.0021  140.1517  161.8990 C.ar    1  UNL1        0.1620
      5 F         139.4507  138.7568  161.5779 F       1  UNL1       -0.2026
      6 C         138.5034  141.0495  160.8058 C.ar    1  UNL1        0.1535
      7 C         138.0548  142.4444  161.1269 C.ar    1  UNL1        0.0369
      8 C         138.1050  142.9414  162.5412 C.ar    1  UNL1        0.0930
      9 CL        137.6564  144.3363  162.8624 Cl      1  UNL1       -0.0790
     10 S         138.4532  140.5524  159.3915 S.O2    1  UNL1        0.0769
     11 O         137.1503  139.8670  159.6786 O.2     1  UNL1       -0.1498
     12 O         139.7562  141.2379  159.1044 O.2     1  UNL1       -0.1498
     13 N         138.4030  140.0553  157.9771 N.pl3   1  UNL1       -0.1984
     14 H         138.9203  139.2592  157.7164 H       1  UNL1        0.1753
     15 C         137.5647  140.7712  156.9598 C.ar    1  UNL1        0.1542
     16 C         137.4947  142.2566  156.7627 C.ar    1  UNL1        0.0725
     17 S         136.5359  142.5308  155.6422 S.2     1  UNL1       -0.0625
     18 C         136.0135  141.2149  155.1467 C.ar    1  UNL1        0.1360
     19 N         136.6493  140.1274  155.9610 N.ar    1  UNL1       -0.2203
     20 C         139.6216  143.6215  165.4301 C.3     1  UNL1        0.2110
     21 C         141.9544  143.9951  164.3490 C.3     1  UNL1        0.0620
     22 C         143.4297  143.7260  164.3175 C.3     1  UNL1        0.0208
     23 C         144.0476  142.8142  165.3357 C.3     1  UNL1        0.0271
     24 C         143.1903  142.1715  166.3854 C.2     1  UNL1       -0.0302
     25 C         141.7150  142.4406  166.4169 C.2     1  UNL1       -0.0218
     26 C         141.0970  143.3524  165.3986 C.3     1  UNL1        0.0801
     27 C         140.8576  141.7979  167.4666 C.ar    1  UNL1       -0.0040
     28 C         140.2149  140.4691  167.1998 C.ar    1  UNL1        0.0020
     29 C         139.3575  139.8264  168.2496 C.ar    1  UNL1        0.0296
     30 C         139.1428  140.5126  169.5660 C.ar    1  UNL1        0.1401
     31 F         138.2855  139.8699  170.6157 F       1  UNL1       -0.2042
     32 C         139.7855  141.8415  169.8328 C.ar    1  UNL1        0.0296
     33 C         140.6429  142.4841  168.7831 C.ar    1  UNL1        0.0020
     34 N         141.3364  144.9069  163.3307 N.3     1  UNL1       -0.2982
     35 H         140.3265  144.8564  163.4647 H       1  UNL1        0.1232
     36 C         141.5937  143.2883  161.3148 C.3     1  UNL1        0.0185
     37 C         141.5911  144.6818  161.8698 C.3     1  UNL1        0.0686
@<TRIPOS>BOND
     1    36    37    1
     2    37    34    1
     3    21    34    1
     4    21    22    1
     5    22    23    1
     6    23    24    1
     7    24    25    2
     8    25    27    1
     9    27    28   ar
    10    28    29   ar
    11    29    30   ar
    12    30    31    1
    13    30    32   ar
    14    32    33   ar
    15    25    26    1
    16    26    20    1
    17    20     1    1
    18     1     2    1
    19     2     3   ar
    20     3     4   ar
    21     4     5    1
    22     4     6   ar
    23     6    10    1
    24    10    11    2
    25    10    12    2
    26    10    13    1
    27    13    15    1
    28    15    16   ar
    29    16    17   ar
    30    17    18   ar
    31    18    19   ar
    32     6     7   ar
    33     7     8   ar
    34     8     9    1
    35    26    21    1
    36     8     2   ar
    37    33    27   ar
    38    19    15   ar
    39    34    35    1
    40    13    14    1
@<TRIPOS>MOLECULE
*****
 37 40 0 0 0
SMALL
GASTEIGER

@<TRIPOS>ATOM
      1 O         142.2361  142.2172  166.1606 O.3     1  UNL1       -0.4741
      2 C         141.7242  142.9409  164.9506 C.ar    1  UNL1        0.1513
      3 C         140.2749  143.3164  164.8585 C.ar    1  UNL1        0.0688
      4 C         139.7629  144.0401  163.6484 C.ar    1  UNL1        0.1620
      5 F         138.3136  144.4155  163.5564 F       1  UNL1       -0.2026
      6 C         140.7003  144.3883  162.5304 C.ar    1  UNL1        0.1535
      7 C         142.1497  144.0129  162.6225 C.ar    1  UNL1        0.0369
      8 C         142.6616  143.2892  163.8325 C.ar    1  UNL1        0.0930
      9 CL        144.1109  142.9138  163.9245 Cl      1  UNL1       -0.0790
     10 S         140.1884  145.1120  161.3204 S.O2    1  UNL1        0.0769
     11 O         140.3411  146.4202  162.0382 O.2     1  UNL1       -0.1498
     12 O         140.0358  143.8038  160.6026 O.2     1  UNL1       -0.1498
     13 N         139.6765  145.8357  160.1104 N.pl3   1  UNL1       -0.1984
     14 H         138.8260  146.3296  160.1554 H       1  UNL1        0.1753
     15 C         140.4603  145.8069  158.8318 C.ar    1  UNL1        0.1542
     16 C         139.9005  145.9752  157.4504 C.ar    1  UNL1        0.0725
     17 S         141.0358  145.8771  156.4750 S.2     1  UNL1       -0.0625
     18 C         142.2973  145.6481  157.2535 C.ar    1  UNL1        0.1360
     19 N         141.9417  145.6047  158.7101 N.ar    1  UNL1       -0.2203
     20 C         142.0692  140.7307  166.2719 C.3     1  UNL1        0.2110
     21 C         140.2117  140.3963  168.0574 C.3     1  UNL1        0.0620
     22 C         138.8880  139.8185  168.4623 C.3     1  UNL1        0.0208
     23 C         138.0980  138.9974  167.4867 C.3     1  UNL1        0.0271
     24 C         138.6318  138.7541  166.1062 C.2     1  UNL1       -0.0302
     25 C         139.9555  139.3318  165.7013 C.2     1  UNL1       -0.0218
     26 C         140.7454  140.1529  166.6769 C.3     1  UNL1        0.0801
     27 C         140.4893  139.0885  164.3207 C.ar    1  UNL1       -0.0040
     28 C         140.1383  140.0272  163.2046 C.ar    1  UNL1        0.0020
     29 C         140.6721  139.7839  161.8241 C.ar    1  UNL1        0.0296
     30 C         141.5569  138.6019  161.5596 C.ar    1  UNL1        0.1401
     31 F         142.0908  138.3585  160.1792 F       1  UNL1       -0.2042
     32 C         141.9079  137.6632  162.6758 C.ar    1  UNL1        0.0296
     33 C         141.3741  137.9065  164.0563 C.ar    1  UNL1        0.0020
     34 N         141.0016  141.2174  169.0330 N.3     1  UNL1       -0.2982
     35 H         141.5693  141.8622  168.4833 H       1  UNL1        0.1232
     36 C         142.3279  139.1152  169.7890 C.3     1  UNL1        0.0185
     37 C         141.9270  140.5447  170.0030 C.3     1  UNL1        0.0686
@<TRIPOS>BOND
     1    36    37    1
     2    37    34    1
     3    21    34    1
     4    21    22    1
     5    22    23    1
     6    23    24    1
     7    24    25    2
     8    25    27    1
     9    27    28   ar
    10    28    29   ar
    11    29    30   ar
    12    30    31    1
    13    30    32   ar
    14    32    33   ar
    15    25    26    1
    16    26    20    1
    17    20     1    1
    18     1     2    1
    19     2     3   ar
    20     3     4   ar
    21     4     5    1
    22     4     6   ar
    23     6    10    1
    24    10    11    2
    25    10    12    2
    26    10    13    1
    27    13    15    1
    28    15    16   ar
    29    16    17   ar
    30    17    18   ar
    31    18    19   ar
    32     6     7   ar
    33     7     8   ar
    34     8     9    1
    35    26    21    1
    36     8     2   ar
    37    33    27   ar
    38    19    15   ar
    39    34    35    1
    40    13    14    1
