@<TRIPOS>MOLECULE
*****
 27 29 0 0 0
SMALL
GASTEIGER

@<TRIPOS>ATOM
      1 C         139.8811  138.3791  158.2619 C.3     1  UNL1        0.0383
      2 C         140.1695  138.6610  159.7067 C.ar    1  UNL1        0.0117
      3 S         139.2021  138.5151  160.8437 S.2     1  UNL1       -0.0938
      4 C         139.9106  138.9023  162.1078 C.ar    1  UNL1        0.0251
      5 C         141.3160  139.2876  161.7521 C.ar    1  UNL1        0.0085
      6 C         141.4759  139.1384  160.2681 C.ar    1  UNL1        0.0559
      7 C         139.3178  138.9040  163.4857 C.3     1  UNL1        0.1038
      8 C         139.1892  137.7153  164.3916 C.3     1  UNL1        0.0266
      9 C         138.5415  138.1712  165.6654 C.3     1  UNL1        0.0236
     10 C         138.2699  139.6417  165.5468 C.3     1  UNL1        0.0938
     11 N         138.7497  140.0945  164.1997 N.am    1  UNL1       -0.2758
     12 C         138.6745  141.4925  163.6612 C.2     1  UNL1        0.2422
     13 O         139.1978  141.7966  162.2887 O.2     1  UNL1       -0.2733
     14 C         138.0760  142.5863  164.4950 C.3     1  UNL1        0.1587
     15 N         138.9667  143.5093  165.2727 N.3     1  UNL1       -0.2626
     16 C         138.5639  144.9386  165.4843 C.3     1  UNL1        0.0900
     17 C         140.2603  143.0029  165.8387 C.3     1  UNL1        0.0900
     18 C         142.7234  139.4177  159.4834 C.2     1  UNL1        0.2511
     19 O         144.0109  138.7448  159.8569 O.2     1  UNL1       -0.2698
     20 N         142.6834  140.3700  158.3251 N.am    1  UNL1       -0.2606
     21 H         141.8385  140.8117  158.0799 H       1  UNL1        0.1571
     22 C         143.9310  140.6492  157.5404 C.ar    1  UNL1        0.1666
     23 N         144.4913  139.7953  156.4419 N.ar    1  UNL1       -0.2215
     24 C         145.7438  140.4498  155.9391 C.ar    1  UNL1        0.1188
     25 C         145.9577  141.7082  156.7269 C.ar    1  UNL1        0.1086
     26 CL        147.0926  142.6738  156.5552 Cl      1  UNL1       -0.0734
     27 S         144.8372  141.8314  157.7166 S.2     1  UNL1       -0.0398
@<TRIPOS>BOND
     1     1     2    1
     2     2     3   ar
     3     3     4   ar
     4     7     4    1
     5     7     8    1
     6     8     9    1
     7     9    10    1
     8    10    11    1
     9    11    12   am
    10    12    13    2
    11    12    14    1
    12    14    15    1
    13    15    16    1
    14    15    17    1
    15     4     5   ar
    16     5     6   ar
    17     6    18    1
    18    18    19    2
    19    18    20   am
    20    20    22    1
    21    22    23   ar
    22    23    24   ar
    23    24    25   ar
    24    25    26    1
    25    25    27   ar
    26     6     2   ar
    27    27    22   ar
    28    11     7    1
    29    20    21    1
@<TRIPOS>MOLECULE
*****
 27 29 0 0 0
SMALL
GASTEIGER

@<TRIPOS>ATOM
      1 C         144.3587  141.2435  162.3742 C.3     1  UNL1        0.0383
      2 C         142.9573  141.2371  162.9091 C.ar    1  UNL1        0.0117
      3 S         142.4225  140.3207  163.9693 S.2     1  UNL1       -0.0938
      4 C         140.9793  140.6632  164.1932 C.ar    1  UNL1        0.0251
      5 C         140.6223  141.7913  163.2713 C.ar    1  UNL1        0.0085
      6 C         141.8448  142.1460  162.4777 C.ar    1  UNL1        0.0559
      7 C         140.0555  139.9949  165.1678 C.3     1  UNL1        0.1038
      8 C         139.1380  138.8468  164.8678 C.3     1  UNL1        0.0266
      9 C         138.4024  138.4996  166.1281 C.3     1  UNL1        0.0236
     10 C         138.8653  139.4332  167.2070 C.3     1  UNL1        0.0938
     11 N         139.8870  140.3573  166.6136 N.am    1  UNL1       -0.2758
     12 C         140.6127  141.4516  167.3386 C.2     1  UNL1        0.2422
     13 O         141.6126  142.2994  166.6097 O.2     1  UNL1       -0.2733
     14 C         140.3386  141.6982  168.7925 C.3     1  UNL1        0.1587
     15 N         141.2528  141.1269  169.8355 N.3     1  UNL1       -0.2626
     16 C         141.7721  139.7269  169.6923 C.3     1  UNL1        0.0900
     17 C         141.6477  141.9556  171.0219 C.3     1  UNL1        0.0900
     18 C         141.9382  143.2209  161.4357 C.2     1  UNL1        0.2511
     19 O         142.7416  144.4586  161.7049 O.2     1  UNL1       -0.2698
     20 N         141.2283  143.0580  160.1244 N.am    1  UNL1       -0.2606
     21 H         140.7009  142.2456  159.9477 H       1  UNL1        0.1571
     22 C         141.3218  144.1330  159.0824 C.ar    1  UNL1        0.1666
     23 N         142.5827  144.6338  158.4429 N.ar    1  UNL1       -0.2215
     24 C         142.2109  145.7062  157.4623 C.ar    1  UNL1        0.1188
     25 C         140.7201  145.8682  157.4956 C.ar    1  UNL1        0.1086
     26 CL        139.9193  146.8330  156.6723 Cl      1  UNL1       -0.0734
     27 S         140.1705  144.8958  158.4970 S.2     1  UNL1       -0.0398
@<TRIPOS>BOND
     1     1     2    1
     2     2     3   ar
     3     3     4   ar
     4     7     4    1
     5     7     8    1
     6     8     9    1
     7     9    10    1
     8    10    11    1
     9    11    12   am
    10    12    13    2
    11    12    14    1
    12    14    15    1
    13    15    16    1
    14    15    17    1
    15     4     5   ar
    16     5     6   ar
    17     6    18    1
    18    18    19    2
    19    18    20   am
    20    20    22    1
    21    22    23   ar
    22    23    24   ar
    23    24    25   ar
    24    25    26    1
    25    25    27   ar
    26     6     2   ar
    27    27    22   ar
    28    11     7    1
    29    20    21    1
@<TRIPOS>MOLECULE
*****
 27 29 0 0 0
SMALL
GASTEIGER

@<TRIPOS>ATOM
      1 C         140.3766  142.5715  157.3718 C.3     1  UNL1        0.0383
      2 C         140.3310  143.5015  158.5479 C.ar    1  UNL1        0.0117
      3 S         140.0792  143.1084  159.9734 S.2     1  UNL1       -0.0938
      4 C         140.1217  144.3517  160.8115 C.ar    1  UNL1        0.0251
      5 C         140.3999  145.5132  159.9040 C.ar    1  UNL1        0.0085
      6 C         140.5292  144.9877  158.5050 C.ar    1  UNL1        0.0559
      7 C         139.9213  144.4213  162.2965 C.3     1  UNL1        0.1038
      8 C         138.6020  144.5059  163.0051 C.3     1  UNL1        0.0266
      9 C         138.8702  144.5554  164.4800 C.3     1  UNL1        0.0236
     10 C         140.3555  144.5015  164.6830 C.3     1  UNL1        0.0938
     11 N         141.0051  144.4186  163.3335 N.am    1  UNL1       -0.2758
     12 C         142.4795  144.3458  163.0678 C.2     1  UNL1        0.2422
     13 O         142.9844  144.2665  161.6575 O.2     1  UNL1       -0.2733
     14 C         143.4491  144.3523  164.2122 C.3     1  UNL1        0.1587
     15 N         143.9598  143.0568  164.7698 N.3     1  UNL1       -0.2626
     16 C         145.0651  142.3228  164.0701 C.3     1  UNL1        0.0900
     17 C         143.3652  142.4953  166.0274 C.3     1  UNL1        0.0900
     18 C         140.8079  145.8050  157.2785 C.2     1  UNL1        0.2511
     19 O         142.2127  146.2224  156.9585 O.2     1  UNL1       -0.2698
     20 N         139.6818  146.2048  156.3719 N.am    1  UNL1       -0.2606
     21 H         138.7598  145.9309  156.5818 H       1  UNL1        0.1571
     22 C         139.9605  147.0221  155.1453 C.ar    1  UNL1        0.1666
     23 N         140.8202  146.6095  153.9875 N.ar    1  UNL1       -0.2215
     24 C         140.8194  147.7280  152.9879 C.ar    1  UNL1        0.1188
     25 C         139.9594  148.8318  153.5279 C.ar    1  UNL1        0.1086
     26 CL        139.6792  150.1418  152.8533 Cl      1  UNL1       -0.0734
     27 S         139.4285  148.3955  154.8614 S.2     1  UNL1       -0.0398
@<TRIPOS>BOND
     1     1     2    1
     2     2     3   ar
     3     3     4   ar
     4     7     4    1
     5     7     8    1
     6     8     9    1
     7     9    10    1
     8    10    11    1
     9    11    12   am
    10    12    13    2
    11    12    14    1
    12    14    15    1
    13    15    16    1
    14    15    17    1
    15     4     5   ar
    16     5     6   ar
    17     6    18    1
    18    18    19    2
    19    18    20   am
    20    20    22    1
    21    22    23   ar
    22    23    24   ar
    23    24    25   ar
    24    25    26    1
    25    25    27   ar
    26     6     2   ar
    27    27    22   ar
    28    11     7    1
    29    20    21    1
@<TRIPOS>MOLECULE
*****
 27 29 0 0 0
SMALL
GASTEIGER

@<TRIPOS>ATOM
      1 C         139.1524  145.1393  162.4258 C.3     1  UNL1        0.0383
      2 C         139.5015  143.8020  163.0084 C.ar    1  UNL1        0.0117
      3 S         138.8266  143.1456  164.1762 S.2     1  UNL1       -0.0938
      4 C         139.4949  141.8241  164.4151 C.ar    1  UNL1        0.0251
      5 C         140.5829  141.6637  163.3950 C.ar    1  UNL1        0.0085
      6 C         140.5870  142.8861  162.5257 C.ar    1  UNL1        0.0559
      7 C         139.1378  140.8364  165.4861 C.3     1  UNL1        0.1038
      8 C         138.1623  139.7048  165.3522 C.3     1  UNL1        0.0266
      9 C         138.1152  138.9759  166.6623 C.3     1  UNL1        0.0236
     10 C         139.0616  139.6570  167.6059 C.3     1  UNL1        0.0938
     11 N         139.6936  140.8069  166.8790 N.am    1  UNL1       -0.2758
     12 C         140.7040  141.7598  167.4456 C.2     1  UNL1        0.2422
     13 O         141.2500  142.8675  166.5942 O.2     1  UNL1       -0.2733
     14 C         141.1683  141.6050  168.8634 C.3     1  UNL1        0.1587
     15 N         141.4927  142.8187  169.6831 N.3     1  UNL1       -0.2626
     16 C         140.4640  143.8943  169.8702 C.3     1  UNL1        0.0900
     17 C         142.8458  142.9568  170.3157 C.3     1  UNL1        0.0900
     18 C         141.5138  143.1469  161.3755 C.2     1  UNL1        0.2511
     19 O         142.2896  144.4291  161.3132 O.2     1  UNL1       -0.2698
     20 N         141.6649  142.1253  160.2875 N.am    1  UNL1       -0.2606
     21 H         141.1557  141.2837  160.3283 H       1  UNL1        0.1571
     22 C         142.5918  142.3862  159.1373 C.ar    1  UNL1        0.1666
     23 N         142.2111  142.9874  157.8170 N.ar    1  UNL1       -0.2215
     24 C         143.4462  143.0643  156.9693 C.ar    1  UNL1        0.1188
     25 C         144.5903  142.5106  157.7657 C.ar    1  UNL1        0.1086
     26 CL        146.0126  142.3960  157.3035 Cl      1  UNL1       -0.0734
     27 S         144.0622  142.0914  159.1057 S.2     1  UNL1       -0.0398
@<TRIPOS>BOND
     1     1     2    1
     2     2     3   ar
     3     3     4   ar
     4     7     4    1
     5     7     8    1
     6     8     9    1
     7     9    10    1
     8    10    11    1
     9    11    12   am
    10    12    13    2
    11    12    14    1
    12    14    15    1
    13    15    16    1
    14    15    17    1
    15     4     5   ar
    16     5     6   ar
    17     6    18    1
    18    18    19    2
    19    18    20   am
    20    20    22    1
    21    22    23   ar
    22    23    24   ar
    23    24    25   ar
    24    25    26    1
    25    25    27   ar
    26     6     2   ar
    27    27    22   ar
    28    11     7    1
    29    20    21    1
@<TRIPOS>MOLECULE
*****
 27 29 0 0 0
SMALL
GASTEIGER

@<TRIPOS>ATOM
      1 C         140.8576  144.6780  161.8822 C.3     1  UNL1        0.0383
      2 C         140.8629  143.2767  162.4174 C.ar    1  UNL1        0.0117
      3 S         141.7038  142.7690  163.5510 S.2     1  UNL1       -0.0938
      4 C         141.3888  141.3156  163.7472 C.ar    1  UNL1        0.0251
      5 C         140.3531  140.9251  162.7348 C.ar    1  UNL1        0.0085
      6 C         140.0281  142.1371  161.9130 C.ar    1  UNL1        0.0559
      7 C         142.0018  140.4116  164.7752 C.3     1  UNL1        0.1038
      8 C         143.3110  139.6907  164.6471 C.3     1  UNL1        0.0266
      9 C         143.5316  138.9032  165.9045 C.3     1  UNL1        0.0236
     10 C         142.3588  139.1374  166.8098 C.3     1  UNL1        0.0938
     11 N         141.4133  140.0696  166.1119 N.am    1  UNL1       -0.2758
     12 C         140.1084  140.5716  166.6552 C.2     1  UNL1        0.2422
     13 O         139.2649  141.5046  165.8379 O.2     1  UNL1       -0.2733
     14 C         139.6471  140.1407  168.0158 C.3     1  UNL1        0.1587
     15 N         140.1076  140.8844  169.2344 N.3     1  UNL1       -0.2626
     16 C         140.4501  142.3417  169.1389 C.3     1  UNL1        0.0900
     17 C         140.2256  140.1709  170.5486 C.3     1  UNL1        0.0900
     18 C         139.0415  142.1987  160.7848 C.2     1  UNL1        0.2511
     19 O         137.7355  142.9130  160.9687 O.2     1  UNL1       -0.2698
     20 N         139.3610  141.5459  159.4726 N.am    1  UNL1       -0.2606
     21 H         140.2182  141.0770  159.3518 H       1  UNL1        0.1571
     22 C         138.3743  141.6075  158.3444 C.ar    1  UNL1        0.1666
     23 N         137.4239  140.5184  157.9439 N.ar    1  UNL1       -0.2215
     24 C         136.6271  141.0069  156.7706 C.ar    1  UNL1        0.1188
     25 C         137.0850  142.3979  156.4461 C.ar    1  UNL1        0.1086
     26 CL        136.5561  143.2655  155.3427 Cl      1  UNL1       -0.0734
     27 S         138.1649  142.7691  157.4188 S.2     1  UNL1       -0.0398
@<TRIPOS>BOND
     1     1     2    1
     2     2     3   ar
     3     3     4   ar
     4     7     4    1
     5     7     8    1
     6     8     9    1
     7     9    10    1
     8    10    11    1
     9    11    12   am
    10    12    13    2
    11    12    14    1
    12    14    15    1
    13    15    16    1
    14    15    17    1
    15     4     5   ar
    16     5     6   ar
    17     6    18    1
    18    18    19    2
    19    18    20   am
    20    20    22    1
    21    22    23   ar
    22    23    24   ar
    23    24    25   ar
    24    25    26    1
    25    25    27   ar
    26     6     2   ar
    27    27    22   ar
    28    11     7    1
    29    20    21    1
@<TRIPOS>MOLECULE
*****
 27 29 0 0 0
SMALL
GASTEIGER

@<TRIPOS>ATOM
      1 C         140.0824  143.9405  157.5063 C.3     1  UNL1        0.0383
      2 C         139.6419  143.5144  158.8753 C.ar    1  UNL1        0.0117
      3 S         140.0838  144.1232  160.1730 S.2     1  UNL1       -0.0938
      4 C         139.3971  143.3897  161.2868 C.ar    1  UNL1        0.0251
      5 C         138.5309  142.3275  160.6775 C.ar    1  UNL1        0.0085
      6 C         138.6822  142.4046  159.1871 C.ar    1  UNL1        0.0559
      7 C         139.5499  143.6694  162.7526 C.3     1  UNL1        0.1038
      8 C         138.6598  144.5487  163.5799 C.3     1  UNL1        0.0266
      9 C         139.1794  144.5416  164.9870 C.3     1  UNL1        0.0236
     10 C         140.3906  143.6578  165.0293 C.3     1  UNL1        0.0938
     11 N         140.6197  143.1187  163.6484 N.am    1  UNL1       -0.2758
     12 C         141.7244  142.1918  163.2358 C.2     1  UNL1        0.2422
     13 O         141.8268  141.7345  161.8109 O.2     1  UNL1       -0.2733
     14 C         142.7267  141.7221  164.2480 C.3     1  UNL1        0.1587
     15 N         144.0986  142.3277  164.2819 N.3     1  UNL1       -0.2626
     16 C         144.3440  143.5862  165.0602 C.3     1  UNL1        0.0900
     17 C         145.2253  141.6746  163.5374 C.3     1  UNL1        0.0900
     18 C         137.9944  141.5260  158.1845 C.2     1  UNL1        0.2511
     19 O         138.2501  140.0480  158.1823 O.2     1  UNL1       -0.2698
     20 N         137.0511  142.1255  157.1842 N.am    1  UNL1       -0.2606
     21 H         136.8833  143.0956  157.1856 H       1  UNL1        0.1571
     22 C         136.3634  141.2468  156.1816 C.ar    1  UNL1        0.1666
     23 N         135.1620  140.3868  156.4403 N.ar    1  UNL1       -0.2215
     24 C         134.8126  139.6824  155.1629 C.ar    1  UNL1        0.1188
     25 C         135.7979  140.1071  154.1147 C.ar    1  UNL1        0.1086
     26 CL        135.8209  139.6460  152.6876 Cl      1  UNL1       -0.0734
     27 S         136.7564  141.0740  154.7444 S.2     1  UNL1       -0.0398
@<TRIPOS>BOND
     1     1     2    1
     2     2     3   ar
     3     3     4   ar
     4     7     4    1
     5     7     8    1
     6     8     9    1
     7     9    10    1
     8    10    11    1
     9    11    12   am
    10    12    13    2
    11    12    14    1
    12    14    15    1
    13    15    16    1
    14    15    17    1
    15     4     5   ar
    16     5     6   ar
    17     6    18    1
    18    18    19    2
    19    18    20   am
    20    20    22    1
    21    22    23   ar
    22    23    24   ar
    23    24    25   ar
    24    25    26    1
    25    25    27   ar
    26     6     2   ar
    27    27    22   ar
    28    11     7    1
    29    20    21    1
@<TRIPOS>MOLECULE
*****
 27 29 0 0 0
SMALL
GASTEIGER

@<TRIPOS>ATOM
      1 C         140.8377  142.8539  157.9871 C.3     1  UNL1        0.0383
      2 C         140.0294  142.7683  159.2478 C.ar    1  UNL1        0.0117
      3 S         140.3848  143.3877  160.5669 S.2     1  UNL1       -0.0938
      4 C         139.2988  143.0504  161.5451 C.ar    1  UNL1        0.0251
      5 C         138.2721  142.2225  160.8305 C.ar    1  UNL1        0.0085
      6 C         138.7237  142.0482  159.4108 C.ar    1  UNL1        0.0559
      7 C         139.2483  143.4678  162.9849 C.3     1  UNL1        0.1038
      8 C         138.7764  144.7942  163.5024 C.3     1  UNL1        0.0266
      9 C         138.8973  144.7782  164.9974 C.3     1  UNL1        0.0236
     10 C         139.4440  143.4419  165.4039 C.3     1  UNL1        0.0938
     11 N         139.6609  142.6319  164.1602 N.am    1  UNL1       -0.2758
     12 C         140.1964  141.2320  164.1019 C.2     1  UNL1        0.2422
     13 O         140.3594  140.5459  162.7780 O.2     1  UNL1       -0.2733
     14 C         140.5688  140.5182  165.3674 C.3     1  UNL1        0.1587
     15 N         139.4967  139.9895  166.2736 N.3     1  UNL1       -0.2626
     16 C         139.6347  140.1303  167.7606 C.3     1  UNL1        0.0900
     17 C         138.2866  139.3198  165.6928 C.3     1  UNL1        0.0900
     18 C         137.9970  141.2873  158.3416 C.2     1  UNL1        0.2511
     19 O         138.1851  139.8044  158.2169 O.2     1  UNL1       -0.2698
     20 N         137.0823  142.0093  157.3972 N.am    1  UNL1       -0.2606
     21 H         136.9588  142.9826  157.4791 H       1  UNL1        0.1571
     22 C         136.3556  141.2483  156.3281 C.ar    1  UNL1        0.1666
     23 N         135.1953  140.3216  156.5393 N.ar    1  UNL1       -0.2215
     24 C         134.7844  139.7810  155.2018 C.ar    1  UNL1        0.1188
     25 C         135.6907  140.3737  154.1639 C.ar    1  UNL1        0.1086
     26 CL        135.6358  140.1065  152.6890 Cl      1  UNL1       -0.0734
     27 S         136.6619  141.2806  154.8601 S.2     1  UNL1       -0.0398
@<TRIPOS>BOND
     1     1     2    1
     2     2     3   ar
     3     3     4   ar
     4     7     4    1
     5     7     8    1
     6     8     9    1
     7     9    10    1
     8    10    11    1
     9    11    12   am
    10    12    13    2
    11    12    14    1
    12    14    15    1
    13    15    16    1
    14    15    17    1
    15     4     5   ar
    16     5     6   ar
    17     6    18    1
    18    18    19    2
    19    18    20   am
    20    20    22    1
    21    22    23   ar
    22    23    24   ar
    23    24    25   ar
    24    25    26    1
    25    25    27   ar
    26     6     2   ar
    27    27    22   ar
    28    11     7    1
    29    20    21    1
@<TRIPOS>MOLECULE
*****
 27 29 0 0 0
SMALL
GASTEIGER

@<TRIPOS>ATOM
      1 C         140.9756  140.0184  157.3446 C.3     1  UNL1        0.0383
      2 C         141.6382  139.2913  158.4770 C.ar    1  UNL1        0.0117
      3 S         141.7340  139.7690  159.8956 S.2     1  UNL1       -0.0938
      4 C         142.4763  138.7318  160.6850 C.ar    1  UNL1        0.0251
      5 C         142.8392  137.6129  159.7542 C.ar    1  UNL1        0.0085
      6 C         142.3213  137.9588  158.3896 C.ar    1  UNL1        0.0559
      7 C         142.7989  138.8012  162.1482 C.3     1  UNL1        0.1038
      8 C         144.0895  139.2792  162.7448 C.3     1  UNL1        0.0266
      9 C         143.9759  139.1782  164.2371 C.3     1  UNL1        0.0236
     10 C         142.6151  138.6378  164.5628 C.3     1  UNL1        0.0938
     11 N         141.8877  138.4048  163.2718 N.am    1  UNL1       -0.2758
     12 C         140.4937  137.8693  163.1295 C.2     1  UNL1        0.2422
     13 O         139.8952  137.6891  161.7660 O.2     1  UNL1       -0.2733
     14 C         139.6984  137.5142  164.3506 C.3     1  UNL1        0.1587
     15 N         138.7587  138.5171  164.9515 N.3     1  UNL1       -0.2626
     16 C         138.4450  139.7860  164.2156 C.3     1  UNL1        0.0900
     17 C         138.1326  138.2512  166.2885 C.3     1  UNL1        0.0900
     18 C         142.4618  137.1193  157.1544 C.2     1  UNL1        0.2511
     19 O         143.7786  137.0517  156.4393 O.2     1  UNL1       -0.2698
     20 N         141.2854  136.3475  156.6343 N.am    1  UNL1       -0.2606
     21 H         140.4211  136.3919  157.1036 H       1  UNL1        0.1571
     22 C         141.4260  135.5081  155.3991 C.ar    1  UNL1        0.1666
     23 N         141.1094  135.9408  153.9983 N.ar    1  UNL1       -0.2215
     24 C         141.3957  134.7887  153.0814 C.ar    1  UNL1        0.1188
     25 C         141.8891  133.6439  153.9155 C.ar    1  UNL1        0.1086
     26 CL        142.2930  132.2919  153.4067 Cl      1  UNL1       -0.0734
     27 S         141.9079  134.0886  155.3480 S.2     1  UNL1       -0.0398
@<TRIPOS>BOND
     1     1     2    1
     2     2     3   ar
     3     3     4   ar
     4     7     4    1
     5     7     8    1
     6     8     9    1
     7     9    10    1
     8    10    11    1
     9    11    12   am
    10    12    13    2
    11    12    14    1
    12    14    15    1
    13    15    16    1
    14    15    17    1
    15     4     5   ar
    16     5     6   ar
    17     6    18    1
    18    18    19    2
    19    18    20   am
    20    20    22    1
    21    22    23   ar
    22    23    24   ar
    23    24    25   ar
    24    25    26    1
    25    25    27   ar
    26     6     2   ar
    27    27    22   ar
    28    11     7    1
    29    20    21    1
@<TRIPOS>MOLECULE
*****
 27 29 0 0 0
SMALL
GASTEIGER

@<TRIPOS>ATOM
      1 C         138.5467  144.9380  165.5862 C.3     1  UNL1        0.0383
      2 C         139.2503  144.4339  164.3611 C.ar    1  UNL1        0.0117
      3 S         138.9014  144.7721  162.9420 S.2     1  UNL1       -0.0938
      4 C         139.8618  144.0503  162.0438 C.ar    1  UNL1        0.0251
      5 C         140.8043  143.2660  162.9078 C.ar    1  UNL1        0.0085
      6 C         140.4264  143.5031  164.3399 C.ar    1  UNL1        0.0559
      7 C         139.8769  144.1035  160.5448 C.3     1  UNL1        0.1038
      8 C         140.4710  145.1971  159.7074 C.3     1  UNL1        0.0266
      9 C         140.2620  144.8420  158.2651 C.3     1  UNL1        0.0236
     10 C         139.5387  143.5290  158.2111 C.3     1  UNL1        0.0938
     11 N         139.3008  143.0726  159.6201 N.am    1  UNL1       -0.2758
     12 C         138.6082  141.8074  160.0319 C.2     1  UNL1        0.2422
     13 O         138.4430  141.4823  161.4869 O.2     1  UNL1       -0.2733
     14 C         138.0810  140.8673  158.9888 C.3     1  UNL1        0.1587
     15 N         138.9614  139.7824  158.4430 N.3     1  UNL1       -0.2626
     16 C         139.5700  138.7727  159.3704 C.3     1  UNL1        0.0900
     17 C         139.2332  139.7073  156.9697 C.3     1  UNL1        0.0900
     18 C         141.1054  142.9129  165.5402 C.2     1  UNL1        0.2511
     19 O         142.6016  142.9374  165.6431 O.2     1  UNL1       -0.2698
     20 N         140.2881  142.2983  166.6376 N.am    1  UNL1       -0.2606
     21 H         139.3061  142.2822  166.5701 H       1  UNL1        0.1571
     22 C         140.9672  141.7081  167.8379 C.ar    1  UNL1        0.1666
     23 N         141.4424  142.4645  169.0428 N.ar    1  UNL1       -0.2215
     24 C         142.0592  141.4817  169.9935 C.ar    1  UNL1        0.1188
     25 C         141.9652  140.1180  169.3762 C.ar    1  UNL1        0.1086
     26 CL        142.4592  138.8389  169.9841 Cl      1  UNL1       -0.0734
     27 S         141.2902  140.2579  168.0438 S.2     1  UNL1       -0.0398
@<TRIPOS>BOND
     1     1     2    1
     2     2     3   ar
     3     3     4   ar
     4     7     4    1
     5     7     8    1
     6     8     9    1
     7     9    10    1
     8    10    11    1
     9    11    12   am
    10    12    13    2
    11    12    14    1
    12    14    15    1
    13    15    16    1
    14    15    17    1
    15     4     5   ar
    16     5     6   ar
    17     6    18    1
    18    18    19    2
    19    18    20   am
    20    20    22    1
    21    22    23   ar
    22    23    24   ar
    23    24    25   ar
    24    25    26    1
    25    25    27   ar
    26     6     2   ar
    27    27    22   ar
    28    11     7    1
    29    20    21    1
