@<TRIPOS>MOLECULE
*****
 39 43 0 0 0
SMALL
GASTEIGER

@<TRIPOS>ATOM
      1 C         142.8287  138.8006  159.5035 C.3     1  UNL1        0.0758
      2 C         141.3308  138.8701  159.5398 C.3     1  UNL1        0.0370
      3 C         140.5831  138.3234  160.7196 C.3     1  UNL1        0.0741
      4 N         141.3332  137.7073  161.8631 N.3     1  UNL1       -0.2688
      5 C         142.8311  137.6378  161.8268 C.3     1  UNL1        0.0741
      6 C         143.5789  138.1844  160.6470 C.3     1  UNL1        0.0370
      7 C         146.0168  142.0237  155.5527 C.3     1  UNL1        0.2053
      8 C         145.2749  140.7525  155.8421 C.3     1  UNL1        0.1402
      9 N         144.9592  141.2506  157.2213 N.am    1  UNL1       -0.2567
     10 C         144.2114  140.7040  158.4011 C.2     1  UNL1        0.3041
     11 O         144.0984  141.5143  159.6584 O.2     1  UNL1       -0.2526
     12 N         143.5766  139.3472  158.3236 N.am    1  UNL1       -0.2903
     13 C         145.7010  142.5218  156.9319 C.3     1  UNL1        0.1402
     14 H         143.6507  138.8155  157.4984 H       1  UNL1        0.1509
     15 O         146.7646  142.5703  154.3729 O.3     1  UNL1       -0.4756
     16 C         151.2598  142.3873  154.2767 C.ar    1  UNL1        0.1389
     17 C         150.5208  143.2094  153.2628 C.ar    1  UNL1        0.0400
     18 C         149.0224  143.2704  153.2949 C.ar    1  UNL1        0.0400
     19 C         148.2630  142.5093  154.3408 C.ar    1  UNL1        0.1387
     20 C         149.0020  141.6872  155.3547 C.ar    1  UNL1        0.0400
     21 C         150.5004  141.6262  155.3226 C.ar    1  UNL1        0.0400
     22 C         153.4490  141.2951  153.4025 C.3     1  UNL1        0.2525
     23 O         152.7582  142.3263  154.2446 O.3     1  UNL1       -0.4714
     24 C         140.5854  137.1606  163.0430 C.3     1  UNL1        0.1007
     25 C         140.2733  138.0492  164.2104 C.ar    1  UNL1        0.0129
     26 C         138.9082  138.3281  164.7660 C.ar    1  UNL1        0.0176
     27 C         139.0628  139.2663  165.9262 C.ar    1  UNL1        0.0799
     28 N         140.5234  139.5671  166.0877 N.ar    1  UNL1       -0.3038
     29 C         141.2715  138.8150  165.0273 C.ar    1  UNL1        0.0772
     30 C         141.1294  140.4629  167.1271 C.ar    1  UNL1        0.0640
     31 C         142.3587  140.0274  167.8680 C.ar    1  UNL1        0.0175
     32 C         142.9648  140.9232  168.9075 C.ar    1  UNL1        0.0053
     33 C         142.3414  142.2545  169.2059 C.ar    1  UNL1        0.0715
     34 C         141.1120  142.6899  168.4650 C.ar    1  UNL1        0.0053
     35 C         140.5060  141.7942  167.4256 C.ar    1  UNL1        0.0175
     36 C         142.9474  143.1502  170.2453 C.3     1  UNL1        0.4186
     37 F         143.5534  144.0460  171.2847 F       1  UNL1       -0.1659
     38 F         144.2171  142.3532  170.1918 F       1  UNL1       -0.1659
     39 F         141.6778  143.9471  170.2988 F       1  UNL1       -0.1659
@<TRIPOS>BOND
     1    22    23    1
     2    23    16    1
     3    16    17   ar
     4    17    18   ar
     5    18    19   ar
     6    19    15    1
     7    15     7    1
     8     7     8    1
     9     8     9    1
    10     9    10   am
    11    10    11    2
    12    10    12   am
    13    12     1    1
    14     1     2    1
    15     2     3    1
    16     3     4    1
    17     4    24    1
    18    24    25    1
    19    25    26   ar
    20    26    27   ar
    21    27    28   ar
    22    28    30    1
    23    30    31   ar
    24    31    32   ar
    25    32    33   ar
    26    33    36    1
    27    36    37    1
    28    36    38    1
    29    36    39    1
    30    33    34   ar
    31    34    35   ar
    32    28    29   ar
    33     4     5    1
    34     5     6    1
    35     9    13    1
    36    19    20   ar
    37    20    21   ar
    38    21    16   ar
    39    13     7    1
    40     6     1    1
    41    29    25   ar
    42    35    30   ar
    43    12    14    1
@<TRIPOS>MOLECULE
*****
 39 43 0 0 0
SMALL
GASTEIGER

@<TRIPOS>ATOM
      1 C         138.6326  141.6314  159.1886 C.3     1  UNL1        0.0758
      2 C         139.0844  140.2327  158.8893 C.3     1  UNL1        0.0370
      3 C         139.0829  139.1960  159.9734 C.3     1  UNL1        0.0741
      4 N         138.6297  139.5580  161.3567 N.3     1  UNL1       -0.2688
      5 C         138.1779  140.9567  161.6560 C.3     1  UNL1        0.0741
      6 C         138.1793  141.9933  160.5719 C.3     1  UNL1        0.0370
      7 C         139.7633  146.1579  155.3947 C.3     1  UNL1        0.2053
      8 C         138.8436  145.0423  155.7943 C.3     1  UNL1        0.1402
      9 N         139.7613  144.6916  156.9279 N.am    1  UNL1       -0.2567
     10 C         139.7599  143.6549  158.0119 C.2     1  UNL1        0.3041
     11 O         140.8844  143.6050  159.0034 O.2     1  UNL1       -0.2526
     12 N         138.6340  142.6682  158.1045 N.am    1  UNL1       -0.2903
     13 C         140.6810  145.8072  156.5283 C.3     1  UNL1        0.1402
     14 H         137.8960  142.7009  157.4538 H       1  UNL1        0.1509
     15 O         139.7646  147.1946  154.3107 O.3     1  UNL1       -0.4756
     16 C         139.0352  151.5166  155.3297 C.ar    1  UNL1        0.1389
     17 C         139.8823  151.1580  154.1449 C.ar    1  UNL1        0.0400
     18 C         140.1254  149.7173  153.8052 C.ar    1  UNL1        0.0400
     19 C         139.5215  148.6352  154.6504 C.ar    1  UNL1        0.1387
     20 C         138.6744  148.9938  155.8351 C.ar    1  UNL1        0.0400
     21 C         138.4312  150.4345  156.1748 C.ar    1  UNL1        0.0400
     22 C         138.3479  153.9145  154.6033 C.3     1  UNL1        0.2525
     23 O         138.7920  152.9572  155.6693 O.3     1  UNL1       -0.4714
     24 C         138.6283  138.5212  162.4408 C.3     1  UNL1        0.1007
     25 C         139.6303  138.5990  163.5543 C.ar    1  UNL1        0.0129
     26 C         140.6374  137.5456  163.9092 C.ar    1  UNL1        0.0176
     27 C         141.4307  138.0394  165.0827 C.ar    1  UNL1        0.0799
     28 N         140.9138  139.3980  165.4529 N.ar    1  UNL1       -0.3038
     29 C         139.8012  139.7439  164.5083 C.ar    1  UNL1        0.0772
     30 C         141.4207  140.2595  166.5713 C.ar    1  UNL1        0.0640
     31 C         140.8189  140.1423  167.9402 C.ar    1  UNL1        0.0175
     32 C         141.3258  141.0038  169.0587 C.ar    1  UNL1        0.0053
     33 C         142.4346  141.9825  168.8081 C.ar    1  UNL1        0.0715
     34 C         143.0365  142.0996  167.4392 C.ar    1  UNL1        0.0053
     35 C         142.5296  141.2382  166.3208 C.ar    1  UNL1        0.0175
     36 C         142.9415  142.8440  169.9266 C.3     1  UNL1        0.4186
     37 F         143.4484  143.7054  171.0451 F       1  UNL1       -0.1659
     38 F         141.6555  143.6162  169.9147 F       1  UNL1       -0.1659
     39 F         144.2274  142.0718  169.9386 F       1  UNL1       -0.1659
@<TRIPOS>BOND
     1    22    23    1
     2    23    16    1
     3    16    17   ar
     4    17    18   ar
     5    18    19   ar
     6    19    15    1
     7    15     7    1
     8     7     8    1
     9     8     9    1
    10     9    10   am
    11    10    11    2
    12    10    12   am
    13    12     1    1
    14     1     2    1
    15     2     3    1
    16     3     4    1
    17     4    24    1
    18    24    25    1
    19    25    26   ar
    20    26    27   ar
    21    27    28   ar
    22    28    30    1
    23    30    31   ar
    24    31    32   ar
    25    32    33   ar
    26    33    36    1
    27    36    37    1
    28    36    38    1
    29    36    39    1
    30    33    34   ar
    31    34    35   ar
    32    28    29   ar
    33     4     5    1
    34     5     6    1
    35     9    13    1
    36    19    20   ar
    37    20    21   ar
    38    21    16   ar
    39    13     7    1
    40     6     1    1
    41    29    25   ar
    42    35    30   ar
    43    12    14    1
@<TRIPOS>MOLECULE
*****
 39 43 0 0 0
SMALL
GASTEIGER

@<TRIPOS>ATOM
      1 C         138.7488  139.7198  159.4908 C.3     1  UNL1        0.0758
      2 C         138.8541  141.2095  159.3512 C.3     1  UNL1        0.0370
      3 C         138.3821  142.1019  160.4607 C.3     1  UNL1        0.0741
      4 N         137.8049  141.5045  161.7097 N.3     1  UNL1       -0.2688
      5 C         137.6997  140.0148  161.8493 C.3     1  UNL1        0.0741
      6 C         138.1716  139.1224  160.7398 C.3     1  UNL1        0.0370
      7 C         141.8160  136.3330  155.5815 C.3     1  UNL1        0.2053
      8 C         140.4862  136.8771  156.0122 C.3     1  UNL1        0.1402
      9 N         141.1486  137.5951  157.1505 N.am    1  UNL1       -0.2567
     10 C         140.6767  138.4876  158.2599 C.2     1  UNL1        0.3041
     11 O         141.6608  139.0403  159.2479 O.2     1  UNL1       -0.2526
     12 N         139.2208  138.8273  158.3814 N.am    1  UNL1       -0.2903
     13 C         142.4784  137.0510  156.7198 C.3     1  UNL1        0.1402
     14 H         138.5749  138.4645  157.7329 H       1  UNL1        0.1509
     15 O         142.2879  135.4406  154.4721 O.3     1  UNL1       -0.4756
     16 C         144.1082  131.4369  155.4247 C.ar    1  UNL1        0.1389
     17 C         143.1939  131.5834  154.2447 C.ar    1  UNL1        0.0400
     18 C         142.5872  132.9180  153.9271 C.ar    1  UNL1        0.0400
     19 C         142.8947  134.1060  154.7896 C.ar    1  UNL1        0.1387
     20 C         143.8089  133.9595  155.9697 C.ar    1  UNL1        0.0400
     21 C         144.4157  132.6250  156.2872 C.ar    1  UNL1        0.0400
     22 C         143.8582  129.0007  156.2922 C.3     1  UNL1        0.2525
     23 O         144.7149  130.1024  155.7423 O.3     1  UNL1       -0.4714
     24 C         137.3330  142.3970  162.8191 C.3     1  UNL1        0.1007
     25 C         138.2348  142.6895  163.9815 C.ar    1  UNL1        0.0129
     26 C         138.6474  144.0512  164.4564 C.ar    1  UNL1        0.0176
     27 C         139.5500  143.8749  165.6415 C.ar    1  UNL1        0.0799
     28 N         139.6953  142.4044  165.8989 N.ar    1  UNL1       -0.3038
     29 C         138.8824  141.6717  164.8730 C.ar    1  UNL1        0.0772
     30 C         140.5102  141.7767  166.9906 C.ar    1  UNL1        0.0640
     31 C         140.0031  140.5546  167.6971 C.ar    1  UNL1        0.0175
     32 C         140.8181  139.9268  168.7888 C.ar    1  UNL1        0.0053
     33 C         142.1403  140.5213  169.1739 C.ar    1  UNL1        0.0715
     34 C         142.6474  141.7434  168.4675 C.ar    1  UNL1        0.0053
     35 C         141.8325  142.3711  167.3758 C.ar    1  UNL1        0.0175
     36 C         142.9553  139.8935  170.2657 C.3     1  UNL1        0.4186
     37 F         143.7702  139.2658  171.3574 F       1  UNL1       -0.1659
     38 F         143.8555  141.0934  170.2836 F       1  UNL1       -0.1659
     39 F         142.0551  138.6938  170.2477 F       1  UNL1       -0.1659
@<TRIPOS>BOND
     1    22    23    1
     2    23    16    1
     3    16    17   ar
     4    17    18   ar
     5    18    19   ar
     6    19    15    1
     7    15     7    1
     8     7     8    1
     9     8     9    1
    10     9    10   am
    11    10    11    2
    12    10    12   am
    13    12     1    1
    14     1     2    1
    15     2     3    1
    16     3     4    1
    17     4    24    1
    18    24    25    1
    19    25    26   ar
    20    26    27   ar
    21    27    28   ar
    22    28    30    1
    23    30    31   ar
    24    31    32   ar
    25    32    33   ar
    26    33    36    1
    27    36    37    1
    28    36    38    1
    29    36    39    1
    30    33    34   ar
    31    34    35   ar
    32    28    29   ar
    33     4     5    1
    34     5     6    1
    35     9    13    1
    36    19    20   ar
    37    20    21   ar
    38    21    16   ar
    39    13     7    1
    40     6     1    1
    41    29    25   ar
    42    35    30   ar
    43    12    14    1
@<TRIPOS>MOLECULE
*****
 39 43 0 0 0
SMALL
GASTEIGER

@<TRIPOS>ATOM
      1 C         142.5302  138.6592  159.0910 C.3     1  UNL1        0.0758
      2 C         143.5840  139.6838  159.3900 C.3     1  UNL1        0.0370
      3 C         143.1894  141.0405  159.8937 C.3     1  UNL1        0.0741
      4 N         141.7410  141.3724  160.0984 N.3     1  UNL1       -0.2688
      5 C         140.6872  140.3477  159.7994 C.3     1  UNL1        0.0741
      6 C         141.0818  138.9911  159.2957 C.3     1  UNL1        0.0370
      7 C         143.7245  133.6934  155.9168 C.3     1  UNL1        0.2053
      8 C         143.7314  134.3713  157.2549 C.3     1  UNL1        0.1402
      9 N         143.1665  135.6121  156.6292 N.am    1  UNL1       -0.2567
     10 C         142.7719  136.9687  157.1329 C.2     1  UNL1        0.3041
     11 O         142.2244  137.9917  156.1822 O.2     1  UNL1       -0.2526
     12 N         142.9248  137.3024  158.5872 N.am    1  UNL1       -0.2903
     13 C         143.1596  134.9341  155.2912 C.3     1  UNL1        0.1402
     14 H         143.2841  136.6310  159.2112 H       1  UNL1        0.1509
     15 O         144.1191  132.3367  155.4132 O.3     1  UNL1       -0.4756
     16 C         143.5875  128.7201  158.0375 C.ar    1  UNL1        0.1389
     17 C         144.5863  129.7757  158.4087 C.ar    1  UNL1        0.0400
     18 C         144.7635  130.9813  157.5339 C.ar    1  UNL1        0.0400
     19 C         143.9419  131.1311  156.2880 C.ar    1  UNL1        0.1387
     20 C         142.9430  130.0755  155.9168 C.ar    1  UNL1        0.0400
     21 C         142.7658  128.8699  156.7916 C.ar    1  UNL1        0.0400
     22 C         142.3206  127.4892  159.9428 C.3     1  UNL1        0.2525
     23 O         143.4103  127.5145  158.9123 O.3     1  UNL1       -0.4714
     24 C         141.3464  142.7292  160.6021 C.3     1  UNL1        0.1007
     25 C         140.6997  142.8706  161.9482 C.ar    1  UNL1        0.0129
     26 C         139.6788  143.9002  162.3320 C.ar    1  UNL1        0.0176
     27 C         139.3086  143.6731  163.7678 C.ar    1  UNL1        0.0799
     28 N         140.1007  142.5031  164.2713 N.ar    1  UNL1       -0.3038
     29 C         140.9605  142.0071  163.1467 C.ar    1  UNL1        0.0772
     30 C         140.0432  141.9298  165.6562 C.ar    1  UNL1        0.0640
     31 C         139.5496  140.5294  165.8682 C.ar    1  UNL1        0.0175
     32 C         139.4920  139.9560  167.2532 C.ar    1  UNL1        0.0053
     33 C         139.9281  140.7832  168.4260 C.ar    1  UNL1        0.0715
     34 C         140.4217  142.1837  168.2140 C.ar    1  UNL1        0.0053
     35 C         140.4792  142.7570  166.8291 C.ar    1  UNL1        0.0175
     36 C         139.8705  140.2098  169.8110 C.3     1  UNL1        0.4186
     37 F         139.8129  139.6365  171.1959 F       1  UNL1       -0.1659
     38 F         141.0918  139.3883  169.5216 F       1  UNL1       -0.1659
     39 F         138.6493  141.0314  170.1003 F       1  UNL1       -0.1659
@<TRIPOS>BOND
     1    22    23    1
     2    23    16    1
     3    16    17   ar
     4    17    18   ar
     5    18    19   ar
     6    19    15    1
     7    15     7    1
     8     7     8    1
     9     8     9    1
    10     9    10   am
    11    10    11    2
    12    10    12   am
    13    12     1    1
    14     1     2    1
    15     2     3    1
    16     3     4    1
    17     4    24    1
    18    24    25    1
    19    25    26   ar
    20    26    27   ar
    21    27    28   ar
    22    28    30    1
    23    30    31   ar
    24    31    32   ar
    25    32    33   ar
    26    33    36    1
    27    36    37    1
    28    36    38    1
    29    36    39    1
    30    33    34   ar
    31    34    35   ar
    32    28    29   ar
    33     4     5    1
    34     5     6    1
    35     9    13    1
    36    19    20   ar
    37    20    21   ar
    38    21    16   ar
    39    13     7    1
    40     6     1    1
    41    29    25   ar
    42    35    30   ar
    43    12    14    1
@<TRIPOS>MOLECULE
*****
 39 43 0 0 0
SMALL
GASTEIGER

@<TRIPOS>ATOM
      1 C         142.4973  139.0047  158.1636 C.3     1  UNL1        0.0758
      2 C         142.2834  140.4083  157.6800 C.3     1  UNL1        0.0370
      3 C         142.7955  141.5654  158.4855 C.3     1  UNL1        0.0741
      4 N         143.5216  141.3187  159.7747 N.3     1  UNL1       -0.2688
      5 C         143.7355  139.9151  160.2584 C.3     1  UNL1        0.0741
      6 C         143.2234  138.7581  159.4528 C.3     1  UNL1        0.0370
      7 C         141.6238  134.4175  154.3747 C.3     1  UNL1        0.2053
      8 C         141.0623  135.2831  155.4635 C.3     1  UNL1        0.1402
      9 N         142.3481  136.0540  155.5140 N.am    1  UNL1       -0.2567
     10 C         142.8603  137.2110  156.3194 C.2     1  UNL1        0.3041
     11 O         144.2477  137.7315  156.0863 O.2     1  UNL1       -0.2526
     12 N         141.9851  137.8476  157.3581 N.am    1  UNL1       -0.2903
     13 C         142.9096  135.1884  154.4252 C.3     1  UNL1        0.1402
     14 H         141.0746  137.5059  157.5111 H       1  UNL1        0.1509
     15 O         141.1116  133.2605  153.5693 O.3     1  UNL1       -0.4756
     16 C         141.1272  129.1161  155.3226 C.ar    1  UNL1        0.1389
     17 C         139.9930  129.5547  154.4445 C.ar    1  UNL1        0.0400
     18 C         139.9878  130.9362  153.8600 C.ar    1  UNL1        0.0400
     19 C         141.1168  131.8790  154.1537 C.ar    1  UNL1        0.1387
     20 C         142.2511  131.4404  155.0318 C.ar    1  UNL1        0.0400
     21 C         142.2562  130.0590  155.6162 C.ar    1  UNL1        0.0400
     22 C         139.8497  126.9664  156.0274 C.3     1  UNL1        0.2525
     23 O         141.1324  127.7347  155.9070 O.3     1  UNL1       -0.4714
     24 C         144.0337  142.4759  160.5803 C.3     1  UNL1        0.1007
     25 C         144.0876  142.3828  162.0764 C.ar    1  UNL1        0.0129
     26 C         145.3096  142.0992  162.8987 C.ar    1  UNL1        0.0176
     27 C         144.9061  142.0981  164.3435 C.ar    1  UNL1        0.0799
     28 N         143.4347  142.3809  164.4140 N.ar    1  UNL1       -0.3038
     29 C         142.9288  142.5569  163.0129 C.ar    1  UNL1        0.0772
     30 C         142.6134  142.4718  165.6659 C.ar    1  UNL1        0.0640
     31 C         143.2461  142.2036  166.9991 C.ar    1  UNL1        0.0175
     32 C         142.4248  142.2945  168.2511 C.ar    1  UNL1        0.0053
     33 C         140.9708  142.6537  168.1696 C.ar    1  UNL1        0.0715
     34 C         140.3380  142.9220  166.8364 C.ar    1  UNL1        0.0053
     35 C         141.1593  142.8311  165.5845 C.ar    1  UNL1        0.0175
     36 C         140.1495  142.7446  169.4216 C.3     1  UNL1        0.4186
     37 F         139.3282  142.8355  170.6734 F       1  UNL1       -0.1659
     38 F         140.6975  144.1166  169.6815 F       1  UNL1       -0.1659
     39 F         139.6014  141.3728  169.1616 F       1  UNL1       -0.1659
@<TRIPOS>BOND
     1    22    23    1
     2    23    16    1
     3    16    17   ar
     4    17    18   ar
     5    18    19   ar
     6    19    15    1
     7    15     7    1
     8     7     8    1
     9     8     9    1
    10     9    10   am
    11    10    11    2
    12    10    12   am
    13    12     1    1
    14     1     2    1
    15     2     3    1
    16     3     4    1
    17     4    24    1
    18    24    25    1
    19    25    26   ar
    20    26    27   ar
    21    27    28   ar
    22    28    30    1
    23    30    31   ar
    24    31    32   ar
    25    32    33   ar
    26    33    36    1
    27    36    37    1
    28    36    38    1
    29    36    39    1
    30    33    34   ar
    31    34    35   ar
    32    28    29   ar
    33     4     5    1
    34     5     6    1
    35     9    13    1
    36    19    20   ar
    37    20    21   ar
    38    21    16   ar
    39    13     7    1
    40     6     1    1
    41    29    25   ar
    42    35    30   ar
    43    12    14    1
@<TRIPOS>MOLECULE
*****
 39 43 0 0 0
SMALL
GASTEIGER

@<TRIPOS>ATOM
      1 C         143.0751  140.2150  158.8811 C.3     1  UNL1        0.0758
      2 C         141.6049  140.1348  158.5947 C.3     1  UNL1        0.0370
      3 C         140.6953  139.4075  159.5400 C.3     1  UNL1        0.0741
      4 N         141.2558  138.7604  160.7717 N.3     1  UNL1       -0.2688
      5 C         142.7260  138.8406  161.0581 C.3     1  UNL1        0.0741
      6 C         143.6357  139.5679  160.1128 C.3     1  UNL1        0.0370
      7 C         146.6202  142.0395  154.3795 C.3     1  UNL1        0.2053
      8 C         145.9897  142.3599  155.7023 C.3     1  UNL1        0.1402
      9 N         145.3337  141.0109  155.7164 N.am    1  UNL1       -0.2567
     10 C         144.4240  140.2837  156.6617 C.2     1  UNL1        0.3041
     11 O         143.9536  138.8978  156.3328 O.2     1  UNL1       -0.2526
     12 N         143.9848  140.9422  157.9357 N.am    1  UNL1       -0.2903
     13 C         145.9642  140.6906  154.3936 C.3     1  UNL1        0.1402
     14 H         144.2935  141.8518  158.1515 H       1  UNL1        0.1509
     15 O         147.5298  142.7668  153.4343 O.3     1  UNL1       -0.4756
     16 C         151.9702  142.8012  154.1634 C.ar    1  UNL1        0.1389
     17 C         151.3664  143.7460  153.1671 C.ar    1  UNL1        0.0400
     18 C         149.8863  143.7346  152.9241 C.ar    1  UNL1        0.0400
     19 C         149.0100  142.7783  153.6773 C.ar    1  UNL1        0.1387
     20 C         149.6138  141.8334  154.6736 C.ar    1  UNL1        0.0400
     21 C         151.0939  141.8448  154.9166 C.ar    1  UNL1        0.0400
     22 C         154.1642  144.1133  154.6268 C.3     1  UNL1        0.2525
     23 O         153.4504  142.8126  154.4064 O.3     1  UNL1       -0.4714
     24 C         140.3461  138.0332  161.7170 C.3     1  UNL1        0.1007
     25 C         139.7037  138.7692  162.8551 C.ar    1  UNL1        0.0129
     26 C         138.2964  139.2875  162.8875 C.ar    1  UNL1        0.0176
     27 C         138.0787  139.9549  164.2132 C.ar    1  UNL1        0.0799
     28 N         139.3513  139.8491  165.0000 N.ar    1  UNL1       -0.3038
     29 C         140.3556  139.1163  164.1608 C.ar    1  UNL1        0.0772
     30 C         139.5795  140.3823  166.3833 C.ar    1  UNL1        0.0640
     31 C         140.3080  141.6792  166.5764 C.ar    1  UNL1        0.0175
     32 C         140.5363  142.2125  167.9598 C.ar    1  UNL1        0.0053
     33 C         140.0359  141.4489  169.1499 C.ar    1  UNL1        0.0715
     34 C         139.3074  140.1520  168.9568 C.ar    1  UNL1        0.0053
     35 C         139.0792  139.6187  167.5735 C.ar    1  UNL1        0.0175
     36 C         140.2641  141.9822  170.5333 C.3     1  UNL1        0.4186
     37 F         140.4924  142.5155  171.9166 F       1  UNL1       -0.1659
     38 F         140.0137  143.3756  170.0374 F       1  UNL1       -0.1659
     39 F         140.5146  140.5889  171.0291 F       1  UNL1       -0.1659
@<TRIPOS>BOND
     1    22    23    1
     2    23    16    1
     3    16    17   ar
     4    17    18   ar
     5    18    19   ar
     6    19    15    1
     7    15     7    1
     8     7     8    1
     9     8     9    1
    10     9    10   am
    11    10    11    2
    12    10    12   am
    13    12     1    1
    14     1     2    1
    15     2     3    1
    16     3     4    1
    17     4    24    1
    18    24    25    1
    19    25    26   ar
    20    26    27   ar
    21    27    28   ar
    22    28    30    1
    23    30    31   ar
    24    31    32   ar
    25    32    33   ar
    26    33    36    1
    27    36    37    1
    28    36    38    1
    29    36    39    1
    30    33    34   ar
    31    34    35   ar
    32    28    29   ar
    33     4     5    1
    34     5     6    1
    35     9    13    1
    36    19    20   ar
    37    20    21   ar
    38    21    16   ar
    39    13     7    1
    40     6     1    1
    41    29    25   ar
    42    35    30   ar
    43    12    14    1
@<TRIPOS>MOLECULE
*****
 39 43 0 0 0
SMALL
GASTEIGER

@<TRIPOS>ATOM
      1 C         142.8653  142.6139  158.4938 C.3     1  UNL1        0.0758
      2 C         143.4021  141.3132  157.9744 C.3     1  UNL1        0.0370
      3 C         143.8174  140.2369  158.9331 C.3     1  UNL1        0.0741
      4 N         143.6959  140.4615  160.4112 N.3     1  UNL1       -0.2688
      5 C         143.1592  141.7622  160.9306 C.3     1  UNL1        0.0741
      6 C         142.7439  142.8385  159.9719 C.3     1  UNL1        0.0370
      7 C         139.9920  146.5339  154.9528 C.3     1  UNL1        0.2053
      8 C         141.3044  146.0120  155.4580 C.3     1  UNL1        0.1402
      9 N         140.5794  145.0117  156.3086 N.am    1  UNL1       -0.2567
     10 C         140.9946  143.9354  157.2673 C.2     1  UNL1        0.3041
     11 O         139.9545  143.1042  157.9582 O.2     1  UNL1       -0.2526
     12 N         142.4500  143.6903  157.5351 N.am    1  UNL1       -0.2903
     13 C         139.2669  145.5335  155.8034 C.3     1  UNL1        0.1402
     14 H         143.1326  144.2358  157.0816 H       1  UNL1        0.1509
     15 O         139.5767  147.6102  153.9941 O.3     1  UNL1       -0.4756
     16 C         138.9243  151.8103  155.4717 C.ar    1  UNL1        0.1389
     17 C         138.5307  150.6441  156.3289 C.ar    1  UNL1        0.0400
     18 C         138.7482  149.2440  155.8364 C.ar    1  UNL1        0.0400
     19 C         139.3593  149.0102  154.4866 C.ar    1  UNL1        0.1387
     20 C         139.7528  150.1765  153.6294 C.ar    1  UNL1        0.0400
     21 C         139.5354  151.5765  154.1219 C.ar    1  UNL1        0.0400
     22 C         138.5360  154.3324  154.9835 C.3     1  UNL1        0.2525
     23 O         138.7068  153.2103  155.9642 O.3     1  UNL1       -0.4714
     24 C         144.1113  139.3851  161.3699 C.3     1  UNL1        0.1007
     25 C         143.2168  139.0155  162.5159 C.ar    1  UNL1        0.0129
     26 C         142.1711  137.9401  162.5068 C.ar    1  UNL1        0.0176
     27 C         141.5191  137.9163  163.8575 C.ar    1  UNL1        0.0799
     28 N         142.1618  138.9769  164.7013 N.ar    1  UNL1       -0.3038
     29 C         143.2111  139.6562  163.8722 C.ar    1  UNL1        0.0772
     30 C         141.8159  139.3013  166.1244 C.ar    1  UNL1        0.0640
     31 C         142.8535  139.1627  167.1987 C.ar    1  UNL1        0.0175
     32 C         142.5076  139.4870  168.6218 C.ar    1  UNL1        0.0053
     33 C         141.1241  139.9500  168.9705 C.ar    1  UNL1        0.0715
     34 C         140.0865  140.0885  167.8962 C.ar    1  UNL1        0.0053
     35 C         140.4324  139.7642  166.4732 C.ar    1  UNL1        0.0175
     36 C         140.7782  140.2743  170.3937 C.3     1  UNL1        0.4186
     37 F         140.4325  140.5986  171.8168 F       1  UNL1       -0.1659
     38 F         139.3604  140.5473  169.9869 F       1  UNL1       -0.1659
     39 F         142.1960  140.0014  170.8004 F       1  UNL1       -0.1659
@<TRIPOS>BOND
     1    22    23    1
     2    23    16    1
     3    16    17   ar
     4    17    18   ar
     5    18    19   ar
     6    19    15    1
     7    15     7    1
     8     7     8    1
     9     8     9    1
    10     9    10   am
    11    10    11    2
    12    10    12   am
    13    12     1    1
    14     1     2    1
    15     2     3    1
    16     3     4    1
    17     4    24    1
    18    24    25    1
    19    25    26   ar
    20    26    27   ar
    21    27    28   ar
    22    28    30    1
    23    30    31   ar
    24    31    32   ar
    25    32    33   ar
    26    33    36    1
    27    36    37    1
    28    36    38    1
    29    36    39    1
    30    33    34   ar
    31    34    35   ar
    32    28    29   ar
    33     4     5    1
    34     5     6    1
    35     9    13    1
    36    19    20   ar
    37    20    21   ar
    38    21    16   ar
    39    13     7    1
    40     6     1    1
    41    29    25   ar
    42    35    30   ar
    43    12    14    1
@<TRIPOS>MOLECULE
*****
 39 43 0 0 0
SMALL
GASTEIGER

@<TRIPOS>ATOM
      1 C         142.5672  139.3463  159.0282 C.3     1  UNL1        0.0758
      2 C         141.6369  140.5109  158.8608 C.3     1  UNL1        0.0370
      3 C         141.8379  141.7545  159.6750 C.3     1  UNL1        0.0741
      4 N         142.9693  141.8335  160.6567 N.3     1  UNL1       -0.2688
      5 C         143.8996  140.6689  160.8241 C.3     1  UNL1        0.0741
      6 C         143.6986  139.4253  160.0099 C.3     1  UNL1        0.0370
      7 C         142.6486  134.9055  154.9744 C.3     1  UNL1        0.2053
      8 C         142.0819  135.4362  156.2578 C.3     1  UNL1        0.1402
      9 N         142.9329  136.6644  156.1259 N.am    1  UNL1       -0.2567
     10 C         143.1339  137.9080  156.9401 C.2     1  UNL1        0.3041
     11 O         144.1027  138.9569  156.4805 O.2     1  UNL1       -0.2526
     12 N         142.3662  138.1027  158.2139 N.am    1  UNL1       -0.2903
     13 C         143.4997  136.1337  154.8425 C.3     1  UNL1        0.1402
     14 H         141.7304  137.4142  158.5156 H       1  UNL1        0.1509
     15 O         142.4476  133.6619  154.1602 O.3     1  UNL1       -0.4756
     16 C         144.6326  129.8817  155.2495 C.ar    1  UNL1        0.1389
     17 C         143.6685  129.8862  154.1003 C.ar    1  UNL1        0.0400
     18 C         142.9402  131.1463  153.7372 C.ar    1  UNL1        0.0400
     19 C         143.1759  132.4018  154.5233 C.ar    1  UNL1        0.1387
     20 C         144.1399  132.3974  155.6725 C.ar    1  UNL1        0.0400
     21 C         144.8683  131.1373  156.0355 C.ar    1  UNL1        0.0400
     22 C         145.8468  127.6990  154.5344 C.3     1  UNL1        0.2525
     23 O         145.3609  128.6217  155.6126 O.3     1  UNL1       -0.4714
     24 C         143.1703  143.0772  161.4710 C.3     1  UNL1        0.1007
     25 C         143.2708  142.9874  162.9649 C.ar    1  UNL1        0.0129
     26 C         144.3218  143.6333  163.8182 C.ar    1  UNL1        0.0176
     27 C         144.0384  143.2811  165.2485 C.ar    1  UNL1        0.0799
     28 N         142.8124  142.4175  165.2791 N.ar    1  UNL1       -0.3038
     29 C         142.3379  142.2360  163.8678 C.ar    1  UNL1        0.0772
     30 C         142.1730  141.8374  166.5057 C.ar    1  UNL1        0.0640
     31 C         140.9172  141.0262  166.3846 C.ar    1  UNL1        0.0175
     32 C         140.2778  140.4459  167.6113 C.ar    1  UNL1        0.0053
     33 C         140.8943  140.6770  168.9590 C.ar    1  UNL1        0.0715
     34 C         142.1502  141.4882  169.0802 C.ar    1  UNL1        0.0053
     35 C         142.7895  142.0684  167.8535 C.ar    1  UNL1        0.0175
     36 C         140.2549  140.0968  170.1857 C.3     1  UNL1        0.4186
     37 F         139.6155  139.5166  171.4123 F       1  UNL1       -0.1659
     38 F         141.3453  139.0699  170.2684 F       1  UNL1       -0.1659
     39 F         139.1646  141.1236  170.1030 F       1  UNL1       -0.1659
@<TRIPOS>BOND
     1    22    23    1
     2    23    16    1
     3    16    17   ar
     4    17    18   ar
     5    18    19   ar
     6    19    15    1
     7    15     7    1
     8     7     8    1
     9     8     9    1
    10     9    10   am
    11    10    11    2
    12    10    12   am
    13    12     1    1
    14     1     2    1
    15     2     3    1
    16     3     4    1
    17     4    24    1
    18    24    25    1
    19    25    26   ar
    20    26    27   ar
    21    27    28   ar
    22    28    30    1
    23    30    31   ar
    24    31    32   ar
    25    32    33   ar
    26    33    36    1
    27    36    37    1
    28    36    38    1
    29    36    39    1
    30    33    34   ar
    31    34    35   ar
    32    28    29   ar
    33     4     5    1
    34     5     6    1
    35     9    13    1
    36    19    20   ar
    37    20    21   ar
    38    21    16   ar
    39    13     7    1
    40     6     1    1
    41    29    25   ar
    42    35    30   ar
    43    12    14    1
@<TRIPOS>MOLECULE
*****
 39 43 0 0 0
SMALL
GASTEIGER

@<TRIPOS>ATOM
      1 C         140.3450  139.4489  159.8895 C.3     1  UNL1        0.0758
      2 C         139.3442  139.0403  158.8495 C.3     1  UNL1        0.0370
      3 C         139.7818  138.8263  157.4309 C.3     1  UNL1        0.0741
      4 N         141.2201  139.0209  157.0521 N.3     1  UNL1       -0.2688
      5 C         142.2208  139.4296  158.0921 C.3     1  UNL1        0.0741
      6 C         141.7832  139.6435  159.5108 C.3     1  UNL1        0.0370
      7 C         139.1562  139.1457  165.7764 C.3     1  UNL1        0.2053
      8 C         139.0378  139.9259  164.5007 C.3     1  UNL1        0.1402
      9 N         139.7750  138.8430  163.7700 N.am    1  UNL1       -0.2567
     10 C         140.2126  138.6290  162.3513 C.2     1  UNL1        0.3041
     11 O         140.9553  137.3811  161.9756 O.2     1  UNL1       -0.2526
     12 N         139.9074  139.6629  161.3083 N.am    1  UNL1       -0.2903
     13 C         139.8934  138.0629  165.0456 C.3     1  UNL1        0.1402
     14 H         139.4199  140.4819  161.5548 H       1  UNL1        0.1509
     15 O         138.7187  139.3597  167.1951 O.3     1  UNL1       -0.4756
     16 C         140.9954  142.1925  169.8489 C.ar    1  UNL1        0.1389
     17 C         139.9101  141.3327  170.4259 C.ar    1  UNL1        0.0400
     18 C         139.1512  140.3885  169.5413 C.ar    1  UNL1        0.0400
     19 C         139.4776  140.3040  168.0797 C.ar    1  UNL1        0.1387
     20 C         140.5629  141.1637  167.5027 C.ar    1  UNL1        0.0400
     21 C         141.3217  142.1080  168.3873 C.ar    1  UNL1        0.0400
     22 C         143.2484  143.2219  170.6325 C.3     1  UNL1        0.2525
     23 O         141.7542  143.1367  170.7335 O.3     1  UNL1       -0.4714
     24 C         141.6577  138.8069  155.6334 C.3     1  UNL1        0.1007
     25 C         142.0220  137.4310  155.1603 C.ar    1  UNL1        0.0129
     26 C         141.9833  136.9476  153.7409 C.ar    1  UNL1        0.0176
     27 C         142.4265  135.5146  153.7270 C.ar    1  UNL1        0.0799
     28 N         142.7390  135.1123  155.1378 N.ar    1  UNL1       -0.3038
     29 C         142.4891  136.2967  156.0236 C.ar    1  UNL1        0.0772
     30 C         143.2175  133.7627  155.5843 C.ar    1  UNL1        0.0640
     31 C         143.8825  133.6067  156.9197 C.ar    1  UNL1        0.0175
     32 C         144.3611  132.2570  157.3663 C.ar    1  UNL1        0.0053
     33 C         144.1745  131.0633  156.4773 C.ar    1  UNL1        0.0715
     34 C         143.5096  131.2192  155.1419 C.ar    1  UNL1        0.0053
     35 C         143.0311  132.5689  154.6954 C.ar    1  UNL1        0.0175
     36 C         144.6531  129.7135  156.9239 C.3     1  UNL1        0.4186
     37 F         145.1316  128.3639  157.3706 F       1  UNL1       -0.1659
     38 F         144.0914  129.1011  155.6751 F       1  UNL1       -0.1659
     39 F         145.2148  130.3259  158.1727 F       1  UNL1       -0.1659
@<TRIPOS>BOND
     1    22    23    1
     2    23    16    1
     3    16    17   ar
     4    17    18   ar
     5    18    19   ar
     6    19    15    1
     7    15     7    1
     8     7     8    1
     9     8     9    1
    10     9    10   am
    11    10    11    2
    12    10    12   am
    13    12     1    1
    14     1     2    1
    15     2     3    1
    16     3     4    1
    17     4    24    1
    18    24    25    1
    19    25    26   ar
    20    26    27   ar
    21    27    28   ar
    22    28    30    1
    23    30    31   ar
    24    31    32   ar
    25    32    33   ar
    26    33    36    1
    27    36    37    1
    28    36    38    1
    29    36    39    1
    30    33    34   ar
    31    34    35   ar
    32    28    29   ar
    33     4     5    1
    34     5     6    1
    35     9    13    1
    36    19    20   ar
    37    20    21   ar
    38    21    16   ar
    39    13     7    1
    40     6     1    1
    41    29    25   ar
    42    35    30   ar
    43    12    14    1
