@<TRIPOS>MOLECULE
*****
 20 21 0 0 0
SMALL
GASTEIGER

@<TRIPOS>ATOM
      1 C         138.7541  143.2560  163.8637 C.ar    1  UNL1        0.0304
      2 C         138.4273  144.3900  162.9379 C.ar    1  UNL1        0.0297
      3 C         139.4878  145.3829  162.5645 C.ar    1  UNL1        0.1401
      4 F         139.1609  146.5169  161.6386 F       1  UNL1       -0.2042
      5 C         140.8752  145.2418  163.1170 C.ar    1  UNL1        0.0327
      6 C         141.2020  144.1079  164.0429 C.ar    1  UNL1        0.0395
      7 C         140.1415  143.1150  164.4162 C.ar    1  UNL1        0.1427
      8 C         137.6936  142.2631  164.2371 C.3     1  UNL1        0.0988
      9 C         137.6377  140.7221  162.1461 C.3     1  UNL1        0.0861
     10 N         136.9187  141.5549  163.1657 N.3     1  UNL1       -0.2925
     11 H         136.2595  140.9368  163.6389 H       1  UNL1        0.1236
     12 O         140.4684  141.9809  165.3421 O.3     1  UNL1       -0.4537
     13 C         141.0717  142.2606  166.6866 C.ar    1  UNL1        0.1476
     14 C         142.5126  141.9330  166.9449 C.ar    1  UNL1        0.0385
     15 C         143.1160  142.2126  168.2894 C.ar    1  UNL1        0.0168
     16 C         142.2785  142.8198  169.3757 C.ar    1  UNL1        0.0852
     17 CL        142.8819  143.0994  170.7202 Cl      1  UNL1       -0.0799
     18 C         140.8377  143.1474  169.1175 C.ar    1  UNL1        0.1536
     19 F         140.0003  143.7546  170.2037 F       1  UNL1       -0.2032
     20 C         140.2343  142.8678  167.7729 C.ar    1  UNL1        0.0680
@<TRIPOS>BOND
     1     9    10    1
     2    10     8    1
     3     8     1    1
     4     1     2   ar
     5     2     3   ar
     6     3     4    1
     7     3     5   ar
     8     5     6   ar
     9     6     7   ar
    10     7    12    1
    11    12    13    1
    12    13    14   ar
    13    14    15   ar
    14    15    16   ar
    15    16    17    1
    16    16    18   ar
    17    18    19    1
    18    18    20   ar
    19     7     1   ar
    20    20    13   ar
    21    10    11    1
@<TRIPOS>MOLECULE
*****
 20 21 0 0 0
SMALL
GASTEIGER

@<TRIPOS>ATOM
      1 C         140.3436  137.7959  164.8464 C.ar    1  UNL1        0.0304
      2 C         138.9846  137.5070  165.4118 C.ar    1  UNL1        0.0297
      3 C         138.3588  138.4616  166.3850 C.ar    1  UNL1        0.1401
      4 F         136.9998  138.1727  166.9504 F       1  UNL1       -0.2042
      5 C         139.0919  139.7051  166.7927 C.ar    1  UNL1        0.0327
      6 C         140.4509  139.9939  166.2273 C.ar    1  UNL1        0.0395
      7 C         141.0767  139.0393  165.2541 C.ar    1  UNL1        0.1427
      8 C         140.9694  136.8413  163.8732 C.3     1  UNL1        0.0988
      9 C         140.3682  138.0823  161.6713 C.3     1  UNL1        0.0861
     10 N         141.3520  137.3121  162.5014 N.3     1  UNL1       -0.2925
     11 H         142.1729  137.9071  162.6126 H       1  UNL1        0.1236
     12 O         142.4357  139.3282  164.6887 O.3     1  UNL1       -0.4537
     13 C         142.8091  140.7317  164.3134 C.ar    1  UNL1        0.1476
     14 C         142.3118  141.3215  163.0269 C.ar    1  UNL1        0.0385
     15 C         142.6851  142.7250  162.6516 C.ar    1  UNL1        0.0168
     16 C         143.5557  143.5386  163.5627 C.ar    1  UNL1        0.0852
     17 CL        143.9291  144.9421  163.1874 Cl      1  UNL1       -0.0799
     18 C         144.0530  142.9488  164.8491 C.ar    1  UNL1        0.1536
     19 F         144.9236  143.7625  165.7602 F       1  UNL1       -0.2032
     20 C         143.6797  141.5453  165.2245 C.ar    1  UNL1        0.0680
@<TRIPOS>BOND
     1     9    10    1
     2    10     8    1
     3     8     1    1
     4     1     2   ar
     5     2     3   ar
     6     3     4    1
     7     3     5   ar
     8     5     6   ar
     9     6     7   ar
    10     7    12    1
    11    12    13    1
    12    13    14   ar
    13    14    15   ar
    14    15    16   ar
    15    16    17    1
    16    16    18   ar
    17    18    19    1
    18    18    20   ar
    19     7     1   ar
    20    20    13   ar
    21    10    11    1
@<TRIPOS>MOLECULE
*****
 20 21 0 0 0
SMALL
GASTEIGER

@<TRIPOS>ATOM
      1 C         139.7100  140.6051  167.7063 C.ar    1  UNL1        0.0304
      2 C         138.6709  139.5842  168.0638 C.ar    1  UNL1        0.0297
      3 C         138.0121  138.7754  166.9860 C.ar    1  UNL1        0.1401
      4 F         136.9729  137.7544  167.3436 F       1  UNL1       -0.2042
      5 C         138.3925  138.9874  165.5506 C.ar    1  UNL1        0.0327
      6 C         139.4316  140.0083  165.1931 C.ar    1  UNL1        0.0395
      7 C         140.0904  140.8172  166.2710 C.ar    1  UNL1        0.1427
      8 C         140.3688  141.4140  168.7842 C.3     1  UNL1        0.0988
      9 C         140.5380  143.7751  169.8548 C.3     1  UNL1        0.0861
     10 N         140.4919  142.9016  168.6363 N.3     1  UNL1       -0.2925
     11 H         141.3521  143.0756  168.1165 H       1  UNL1        0.1236
     12 O         141.1296  141.8381  165.9134 O.3     1  UNL1       -0.4537
     13 C         140.8001  142.9371  164.9472 C.ar    1  UNL1        0.1476
     14 C         139.5226  143.7091  165.0967 C.ar    1  UNL1        0.0385
     15 C         139.1931  144.8081  164.1305 C.ar    1  UNL1        0.0168
     16 C         140.1409  145.1352  163.0149 C.ar    1  UNL1        0.0852
     17 CL        139.8113  146.2343  162.0488 Cl      1  UNL1       -0.0799
     18 C         141.4183  144.3633  162.8654 C.ar    1  UNL1        0.1536
     19 F         142.3661  144.6905  161.7498 F       1  UNL1       -0.2032
     20 C         141.7479  143.2642  163.8316 C.ar    1  UNL1        0.0680
@<TRIPOS>BOND
     1     9    10    1
     2    10     8    1
     3     8     1    1
     4     1     2   ar
     5     2     3   ar
     6     3     4    1
     7     3     5   ar
     8     5     6   ar
     9     6     7   ar
    10     7    12    1
    11    12    13    1
    12    13    14   ar
    13    14    15   ar
    14    15    16   ar
    15    16    17    1
    16    16    18   ar
    17    18    19    1
    18    18    20   ar
    19     7     1   ar
    20    20    13   ar
    21    10    11    1
@<TRIPOS>MOLECULE
*****
 20 21 0 0 0
SMALL
GASTEIGER

@<TRIPOS>ATOM
      1 C         142.1911  141.9023  167.6236 C.ar    1  UNL1        0.0304
      2 C         143.0243  142.2040  168.8339 C.ar    1  UNL1        0.0297
      3 C         142.4573  143.0347  169.9468 C.ar    1  UNL1        0.1401
      4 F         143.2905  143.3363  171.1571 F       1  UNL1       -0.2042
      5 C         141.0571  143.5637  169.8493 C.ar    1  UNL1        0.0327
      6 C         140.2239  143.2621  168.6391 C.ar    1  UNL1        0.0395
      7 C         140.7909  142.4314  167.5262 C.ar    1  UNL1        0.1427
      8 C         142.7581  141.0716  166.5108 C.3     1  UNL1        0.0988
      9 C         142.0927  139.7425  164.3799 C.3     1  UNL1        0.0861
     10 N         141.9063  140.0357  165.8391 N.3     1  UNL1       -0.2925
     11 H         142.0606  139.1593  166.3376 H       1  UNL1        0.1236
     12 O         139.9577  142.1297  166.3159 O.3     1  UNL1       -0.4537
     13 C         139.8361  143.1438  165.2173 C.ar    1  UNL1        0.1476
     14 C         138.4983  143.4229  164.5990 C.ar    1  UNL1        0.0385
     15 C         138.3767  144.4370  163.5004 C.ar    1  UNL1        0.0168
     16 C         139.5929  145.1719  163.0201 C.ar    1  UNL1        0.0852
     17 CL        139.4714  146.1859  161.9216 Cl      1  UNL1       -0.0799
     18 C         140.9307  144.8928  163.6384 C.ar    1  UNL1        0.1536
     19 F         142.1470  145.6277  163.1582 F       1  UNL1       -0.2032
     20 C         141.0524  143.8787  164.7371 C.ar    1  UNL1        0.0680
@<TRIPOS>BOND
     1     9    10    1
     2    10     8    1
     3     8     1    1
     4     1     2   ar
     5     2     3   ar
     6     3     4    1
     7     3     5   ar
     8     5     6   ar
     9     6     7   ar
    10     7    12    1
    11    12    13    1
    12    13    14   ar
    13    14    15   ar
    14    15    16   ar
    15    16    17    1
    16    16    18   ar
    17    18    19    1
    18    18    20   ar
    19     7     1   ar
    20    20    13   ar
    21    10    11    1
@<TRIPOS>MOLECULE
*****
 20 21 0 0 0
SMALL
GASTEIGER

@<TRIPOS>ATOM
      1 C         139.8719  140.7903  167.7412 C.ar    1  UNL1        0.0304
      2 C         138.9836  139.6152  168.0241 C.ar    1  UNL1        0.0297
      3 C         138.1097  139.0575  166.9401 C.ar    1  UNL1        0.1401
      4 F         137.2214  137.8824  167.2230 F       1  UNL1       -0.2042
      5 C         138.1241  139.6749  165.5731 C.ar    1  UNL1        0.0327
      6 C         139.0124  140.8499  165.2902 C.ar    1  UNL1        0.0395
      7 C         139.8863  141.4077  166.3743 C.ar    1  UNL1        0.1427
      8 C         140.7458  141.3481  168.8253 C.3     1  UNL1        0.0988
      9 C         140.3576  143.6965  169.8664 C.3     1  UNL1        0.0861
     10 N         141.0462  142.8171  168.8651 N.3     1  UNL1       -0.2925
     11 H         142.0482  142.9083  169.0329 H       1  UNL1        0.1236
     12 O         140.7746  142.5828  166.0913 O.3     1  UNL1       -0.4537
     13 C         142.0874  142.3800  165.3947 C.ar    1  UNL1        0.1476
     14 C         142.7013  143.5015  164.6101 C.ar    1  UNL1        0.0385
     15 C         144.0141  143.2987  163.9135 C.ar    1  UNL1        0.0168
     16 C         144.7132  141.9745  164.0014 C.ar    1  UNL1        0.0852
     17 CL        146.0260  141.7717  163.3048 Cl      1  UNL1       -0.0799
     18 C         144.0994  140.8531  164.7860 C.ar    1  UNL1        0.1536
     19 F         144.7985  139.5289  164.8740 F       1  UNL1       -0.2032
     20 C         142.7865  141.0558  165.4827 C.ar    1  UNL1        0.0680
@<TRIPOS>BOND
     1     9    10    1
     2    10     8    1
     3     8     1    1
     4     1     2   ar
     5     2     3   ar
     6     3     4    1
     7     3     5   ar
     8     5     6   ar
     9     6     7   ar
    10     7    12    1
    11    12    13    1
    12    13    14   ar
    13    14    15   ar
    14    15    16   ar
    15    16    17    1
    16    16    18   ar
    17    18    19    1
    18    18    20   ar
    19     7     1   ar
    20    20    13   ar
    21    10    11    1
@<TRIPOS>MOLECULE
*****
 20 21 0 0 0
SMALL
GASTEIGER

@<TRIPOS>ATOM
      1 C         141.4670  141.8219  167.9822 C.ar    1  UNL1        0.0304
      2 C         140.9597  142.7673  169.0304 C.ar    1  UNL1        0.0297
      3 C         139.8787  142.3306  169.9743 C.ar    1  UNL1        0.1401
      4 F         139.3715  143.2761  171.0226 F       1  UNL1       -0.2042
      5 C         139.3051  140.9486  169.8700 C.ar    1  UNL1        0.0327
      6 C         139.8124  140.0033  168.8217 C.ar    1  UNL1        0.0395
      7 C         140.8933  140.4399  167.8778 C.ar    1  UNL1        0.1427
      8 C         142.5479  142.2585  167.0383 C.3     1  UNL1        0.0988
      9 C         143.1850  141.6294  164.5994 C.3     1  UNL1        0.0861
     10 N         142.2742  142.3279  165.5651 N.3     1  UNL1       -0.2925
     11 H         141.3408  141.9429  165.4206 H       1  UNL1        0.1236
     12 O         141.4006  139.4944  166.8296 O.3     1  UNL1       -0.4537
     13 C         140.5421  139.1545  165.6475 C.ar    1  UNL1        0.1476
     14 C         140.8200  137.9144  164.8505 C.ar    1  UNL1        0.0385
     15 C         139.9614  137.5745  163.6684 C.ar    1  UNL1        0.0168
     16 C         138.8250  138.4746  163.2833 C.ar    1  UNL1        0.0852
     17 CL        137.9665  138.1347  162.1012 Cl      1  UNL1       -0.0799
     18 C         138.5471  139.7146  164.0802 C.ar    1  UNL1        0.1536
     19 F         137.4106  140.6146  163.6950 F       1  UNL1       -0.2032
     20 C         139.4056  140.0545  165.2623 C.ar    1  UNL1        0.0680
@<TRIPOS>BOND
     1     9    10    1
     2    10     8    1
     3     8     1    1
     4     1     2   ar
     5     2     3   ar
     6     3     4    1
     7     3     5   ar
     8     5     6   ar
     9     6     7   ar
    10     7    12    1
    11    12    13    1
    12    13    14   ar
    13    14    15   ar
    14    15    16   ar
    15    16    17    1
    16    16    18   ar
    17    18    19    1
    18    18    20   ar
    19     7     1   ar
    20    20    13   ar
    21    10    11    1
@<TRIPOS>MOLECULE
*****
 20 21 0 0 0
SMALL
GASTEIGER

@<TRIPOS>ATOM
      1 C         140.4603  140.4597  167.0054 C.ar    1  UNL1        0.0304
      2 C         139.5680  139.8794  168.0623 C.ar    1  UNL1        0.0297
      3 C         139.3315  140.6301  169.3393 C.ar    1  UNL1        0.1401
      4 F         138.4392  140.0498  170.3962 F       1  UNL1       -0.2042
      5 C         139.9874  141.9610  169.5593 C.ar    1  UNL1        0.0327
      6 C         140.8797  142.5413  168.5024 C.ar    1  UNL1        0.0395
      7 C         141.1162  141.7906  167.2255 C.ar    1  UNL1        0.1427
      8 C         140.6967  139.7090  165.7285 C.3     1  UNL1        0.0988
      9 C         143.0907  138.7473  166.0354 C.3     1  UNL1        0.0861
     10 N         142.0945  139.5166  165.2194 N.3     1  UNL1       -0.2925
     11 H         142.0177  139.0388  164.3215 H       1  UNL1        0.1236
     12 O         142.0085  142.3709  166.1686 O.3     1  UNL1       -0.4537
     13 C         141.4435  143.3050  165.1399 C.ar    1  UNL1        0.1476
     14 C         142.3624  144.0466  164.2148 C.ar    1  UNL1        0.0385
     15 C         141.7974  144.9807  163.1862 C.ar    1  UNL1        0.0168
     16 C         140.3134  145.1733  163.0826 C.ar    1  UNL1        0.0852
     17 CL        139.7484  146.1074  162.0540 Cl      1  UNL1       -0.0799
     18 C         139.3945  144.4318  164.0076 C.ar    1  UNL1        0.1536
     19 F         137.9105  144.6244  163.9040 F       1  UNL1       -0.2032
     20 C         139.9595  143.4976  165.0363 C.ar    1  UNL1        0.0680
@<TRIPOS>BOND
     1     9    10    1
     2    10     8    1
     3     8     1    1
     4     1     2   ar
     5     2     3   ar
     6     3     4    1
     7     3     5   ar
     8     5     6   ar
     9     6     7   ar
    10     7    12    1
    11    12    13    1
    12    13    14   ar
    13    14    15   ar
    14    15    16   ar
    15    16    17    1
    16    16    18   ar
    17    18    19    1
    18    18    20   ar
    19     7     1   ar
    20    20    13   ar
    21    10    11    1
@<TRIPOS>MOLECULE
*****
 20 21 0 0 0
SMALL
GASTEIGER

@<TRIPOS>ATOM
      1 C         141.8105  139.6330  167.3662 C.ar    1  UNL1        0.0304
      2 C         142.5462  139.8150  168.6606 C.ar    1  UNL1        0.0297
      3 C         141.7868  140.1110  169.9198 C.ar    1  UNL1        0.1401
      4 F         142.5226  140.2931  171.2142 F       1  UNL1       -0.2042
      5 C         140.2916  140.2249  169.8846 C.ar    1  UNL1        0.0327
      6 C         139.5558  140.0428  168.5903 C.ar    1  UNL1        0.0395
      7 C         140.3153  139.7469  167.3311 C.ar    1  UNL1        0.1427
      8 C         142.5699  139.3370  166.1070 C.3     1  UNL1        0.0988
      9 C         142.1008  138.2900  163.7760 C.3     1  UNL1        0.0861
     10 N         142.1960  138.1522  165.2666 N.3     1  UNL1       -0.2925
     11 H         142.8910  137.4289  165.4516 H       1  UNL1        0.1236
     12 O         139.5794  139.5648  166.0366 O.3     1  UNL1       -0.4537
     13 C         139.0843  140.7619  165.2806 C.ar    1  UNL1        0.1476
     14 C         138.0376  140.5981  164.2186 C.ar    1  UNL1        0.0385
     15 C         137.5424  141.7952  163.4626 C.ar    1  UNL1        0.0168
     16 C         138.0939  143.1562  163.7684 C.ar    1  UNL1        0.0852
     17 CL        137.5988  144.3533  163.0124 Cl      1  UNL1       -0.0799
     18 C         139.1405  143.3201  164.8303 C.ar    1  UNL1        0.1536
     19 F         139.6920  144.6811  165.1361 F       1  UNL1       -0.2032
     20 C         139.6357  142.1229  165.5864 C.ar    1  UNL1        0.0680
@<TRIPOS>BOND
     1     9    10    1
     2    10     8    1
     3     8     1    1
     4     1     2   ar
     5     2     3   ar
     6     3     4    1
     7     3     5   ar
     8     5     6   ar
     9     6     7   ar
    10     7    12    1
    11    12    13    1
    12    13    14   ar
    13    14    15   ar
    14    15    16   ar
    15    16    17    1
    16    16    18   ar
    17    18    19    1
    18    18    20   ar
    19     7     1   ar
    20    20    13   ar
    21    10    11    1
@<TRIPOS>MOLECULE
*****
 20 21 0 0 0
SMALL
GASTEIGER

@<TRIPOS>ATOM
      1 C         139.5948  138.1859  164.1049 C.ar    1  UNL1        0.0304
      2 C         138.8459  137.2615  165.0185 C.ar    1  UNL1        0.0297
      3 C         138.1007  137.8134  166.1975 C.ar    1  UNL1        0.1401
      4 F         137.3518  136.8890  167.1111 F       1  UNL1       -0.2042
      5 C         138.1042  139.2897  166.4629 C.ar    1  UNL1        0.0327
      6 C         138.8531  140.2141  165.5493 C.ar    1  UNL1        0.0395
      7 C         139.5984  139.6622  164.3703 C.ar    1  UNL1        0.1427
      8 C         140.3401  137.6340  162.9260 C.3     1  UNL1        0.0988
      9 C         142.4841  137.9453  161.4921 C.3     1  UNL1        0.0861
     10 N         141.8277  137.8025  162.8333 N.3     1  UNL1       -0.2925
     11 H         142.0630  138.6392  163.3669 H       1  UNL1        0.1236
     12 O         140.3472  140.5867  163.4567 O.3     1  UNL1       -0.4537
     13 C         141.4678  141.4267  163.9938 C.ar    1  UNL1        0.1476
     14 C         142.6044  140.7799  164.7287 C.ar    1  UNL1        0.0385
     15 C         143.7250  141.6199  165.2659 C.ar    1  UNL1        0.0168
     16 C         143.7091  143.1067  165.0682 C.ar    1  UNL1        0.0852
     17 CL        144.8297  143.9468  165.6053 Cl      1  UNL1       -0.0799
     18 C         142.5727  143.7535  164.3333 C.ar    1  UNL1        0.1536
     19 F         142.5568  145.2404  164.1357 F       1  UNL1       -0.2032
     20 C         141.4520  142.9135  163.7962 C.ar    1  UNL1        0.0680
@<TRIPOS>BOND
     1     9    10    1
     2    10     8    1
     3     8     1    1
     4     1     2   ar
     5     2     3   ar
     6     3     4    1
     7     3     5   ar
     8     5     6   ar
     9     6     7   ar
    10     7    12    1
    11    12    13    1
    12    13    14   ar
    13    14    15   ar
    14    15    16   ar
    15    16    17    1
    16    16    18   ar
    17    18    19    1
    18    18    20   ar
    19     7     1   ar
    20    20    13   ar
    21    10    11    1
