@<TRIPOS>MOLECULE
*****
 40 45 0 0 0
SMALL
GASTEIGER

@<TRIPOS>ATOM
      1 C         140.0112  143.4184  161.5678 C.ar    1  UNL1        0.1859
      2 N         139.1771  142.6866  162.5772 N.ar    1  UNL1       -0.2217
      3 C         139.7662  142.3072  163.9035 C.ar    1  UNL1        0.1361
      4 C         138.9322  141.5754  164.9128 C.ar    1  UNL1        0.1227
      5 N         139.5213  141.1960  166.2391 N.ar    1  UNL1       -0.2233
      6 C         140.9444  141.5484  166.5560 C.ar    1  UNL1        0.1662
      7 N         141.7785  142.2802  165.5467 N.ar    1  UNL1       -0.2077
      8 C         141.1894  142.6596  164.2204 C.ar    1  UNL1        0.1671
      9 N         142.0235  143.3914  163.2110 N.ar    1  UNL1       -0.2789
     10 C         141.4344  143.7708  161.8848 C.ar    1  UNL1        0.2934
     11 O         142.2684  144.5027  160.8753 O.2     1  UNL1       -0.2639
     12 C         141.5335  141.1690  167.8823 C.ar    1  UNL1        0.0630
     13 C         141.2468  142.0022  169.0962 C.ar    1  UNL1        0.0652
     14 C         140.3710  143.2148  168.9839 C.3     1  UNL1        0.0523
     15 N         141.8359  141.6227  170.4226 N.ar    1  UNL1       -0.2282
     16 C         142.7117  140.4101  170.5349 C.ar    1  UNL1        0.1982
     17 N         142.9983  139.5770  169.3209 N.ar    1  UNL1       -0.2283
     18 C         142.4093  139.9564  167.9947 C.ar    1  UNL1        0.0644
     19 C         142.6960  139.1232  166.7807 C.3     1  UNL1        0.0405
     20 C         143.6788  138.4419  165.8752 C.3     1  UNL1        0.0063
     21 C         142.2096  138.3616  165.5835 C.3     1  UNL1        0.0063
     22 N         139.4221  143.7979  160.2415 N.pl3   1  UNL1       -0.3106
     23 H         139.4409  144.7365  159.9450 H       1  UNL1        0.1486
     24 C         138.8045  142.7473  159.3670 C.3     1  UNL1        0.1170
     25 C         141.2047  139.1430  158.1430 C.ar    1  UNL1        0.1862
     26 C         141.7203  140.5213  157.8527 C.ar    1  UNL1        0.0377
     27 C         140.9203  141.7227  158.2607 C.ar    1  UNL1        0.0018
     28 C         139.6045  141.5458  158.9590 C.ar    1  UNL1        0.0167
     29 C         139.0889  140.1675  159.2493 C.ar    1  UNL1        0.0977
     30 N         139.8890  138.9660  158.8413 N.ar    1  UNL1       -0.2260
     31 S         142.0047  137.9416  157.7350 S.O2    1  UNL1        0.0250
     32 O         143.2184  138.5256  158.3951 O.2     1  UNL1       -0.1672
     33 O         140.7910  137.3575  157.0748 O.2     1  UNL1       -0.1672
     34 C         142.2363  135.7587  156.3451 C.3     1  UNL1        0.0276
     35 C         142.8047  136.7400  157.3269 C.3     1  UNL1        0.1577
     36 C         143.4466  143.7438  163.5279 C.3     1  UNL1        0.0899
     37 C         143.7855  145.1162  164.0299 C.3     1  UNL1        0.0246
     38 C         144.5308  142.7240  163.3429 C.3     1  UNL1        0.0209
     39 C         145.3087  141.8021  162.4512 C.3     1  UNL1        0.0019
     40 C         145.6310  141.8794  163.9141 C.3     1  UNL1        0.0019
@<TRIPOS>BOND
     1    34    35    1
     2    35    31    1
     3    31    32    2
     4    31    33    2
     5    31    25    1
     6    25    26   ar
     7    26    27   ar
     8    27    28   ar
     9    28    24    1
    10    24    22    1
    11    22     1    1
    12     1     2   ar
    13     2     3   ar
    14     3     4   ar
    15     4     5   ar
    16     5     6   ar
    17     6    12    1
    18    12    13   ar
    19    13    14    1
    20    13    15   ar
    21    15    16   ar
    22    16    17   ar
    23    17    18   ar
    24    18    19    1
    25    19    20    1
    26    20    21    1
    27     6     7   ar
    28     7     8   ar
    29     8     9   ar
    30     9    36    1
    31    36    37    1
    32    36    38    1
    33    38    39    1
    34    39    40    1
    35     9    10   ar
    36    10    11    2
    37    28    29   ar
    38    29    30   ar
    39    30    25   ar
    40    10     1   ar
    41     8     3   ar
    42    40    38    1
    43    18    12   ar
    44    21    19    1
    45    22    23    1
@<TRIPOS>MOLECULE
*****
 40 45 0 0 0
SMALL
GASTEIGER

@<TRIPOS>ATOM
      1 C         140.0215  143.5492  161.6490 C.ar    1  UNL1        0.1859
      2 N         139.1801  142.8120  162.6484 N.ar    1  UNL1       -0.2217
      3 C         139.7679  142.4012  163.9659 C.ar    1  UNL1        0.1361
      4 C         138.9265  141.6640  164.9652 C.ar    1  UNL1        0.1227
      5 N         139.5143  141.2532  166.2827 N.ar    1  UNL1       -0.2233
      6 C         140.9434  141.5795  166.6008 C.ar    1  UNL1        0.1662
      7 N         141.7847  142.3167  165.6015 N.ar    1  UNL1       -0.2077
      8 C         141.1969  142.7275  164.2840 C.ar    1  UNL1        0.1671
      9 N         142.0383  143.4647  163.2846 N.ar    1  UNL1       -0.2789
     10 C         141.4505  143.8755  161.9672 C.ar    1  UNL1        0.2934
     11 O         142.2919  144.6127  160.9677 O.2     1  UNL1       -0.2639
     12 C         141.5311  141.1687  167.9184 C.ar    1  UNL1        0.0630
     13 C         141.2656  141.9883  169.1462 C.ar    1  UNL1        0.0652
     14 C         140.4124  143.2188  169.0567 C.3     1  UNL1        0.0523
     15 N         141.8534  141.5774  170.4638 N.ar    1  UNL1       -0.2282
     16 C         142.7066  140.3470  170.5534 C.ar    1  UNL1        0.1982
     17 N         142.9720  139.5274  169.3254 N.ar    1  UNL1       -0.2283
     18 C         142.3843  139.9382  168.0079 C.ar    1  UNL1        0.0644
     19 C         142.6497  139.1186  166.7799 C.3     1  UNL1        0.0405
     20 C         143.6151  138.4297  165.8616 C.3     1  UNL1        0.0063
     21 C         142.1441  138.3880  165.5715 C.3     1  UNL1        0.0063
     22 N         139.4337  143.9600  160.3315 N.pl3   1  UNL1       -0.3106
     23 H         139.0457  144.8585  160.2243 H       1  UNL1        0.1486
     24 C         139.4371  143.0020  159.1773 C.3     1  UNL1        0.1170
     25 C         143.3266  141.8132  157.2515 C.ar    1  UNL1        0.1862
     26 C         142.7785  143.1940  157.0447 C.ar    1  UNL1        0.0377
     27 C         141.4820  143.5903  157.6866 C.ar    1  UNL1        0.0018
     28 C         140.7336  142.6057  158.5354 C.ar    1  UNL1        0.0167
     29 C         141.2817  141.2248  158.7423 C.ar    1  UNL1        0.0977
     30 N         142.5782  140.8286  158.1003 N.ar    1  UNL1       -0.2260
     31 S         144.6230  141.4169  156.6096 S.O2    1  UNL1        0.0250
     32 O         144.5083  142.5748  155.6631 O.2     1  UNL1       -0.1672
     33 O         144.7377  140.2589  157.5561 O.2     1  UNL1       -0.1672
     34 C         147.0783  141.9730  155.9675 C.3     1  UNL1        0.0276
     35 C         145.9196  141.0205  155.9677 C.3     1  UNL1        0.1577
     36 C         143.4674  143.7910  163.6027 C.3     1  UNL1        0.0899
     37 C         143.8261  145.1456  164.1380 C.3     1  UNL1        0.0246
     38 C         144.5377  142.7628  163.3857 C.3     1  UNL1        0.0209
     39 C         145.6137  141.8723  163.9327 C.3     1  UNL1        0.0019
     40 C         145.3157  141.8725  162.4627 C.3     1  UNL1        0.0019
@<TRIPOS>BOND
     1    34    35    1
     2    35    31    1
     3    31    32    2
     4    31    33    2
     5    31    25    1
     6    25    26   ar
     7    26    27   ar
     8    27    28   ar
     9    28    24    1
    10    24    22    1
    11    22     1    1
    12     1     2   ar
    13     2     3   ar
    14     3     4   ar
    15     4     5   ar
    16     5     6   ar
    17     6    12    1
    18    12    13   ar
    19    13    14    1
    20    13    15   ar
    21    15    16   ar
    22    16    17   ar
    23    17    18   ar
    24    18    19    1
    25    19    20    1
    26    20    21    1
    27     6     7   ar
    28     7     8   ar
    29     8     9   ar
    30     9    36    1
    31    36    37    1
    32    36    38    1
    33    38    39    1
    34    39    40    1
    35     9    10   ar
    36    10    11    2
    37    28    29   ar
    38    29    30   ar
    39    30    25   ar
    40    10     1   ar
    41     8     3   ar
    42    40    38    1
    43    18    12   ar
    44    21    19    1
    45    22    23    1
@<TRIPOS>MOLECULE
*****
 40 45 0 0 0
SMALL
GASTEIGER

@<TRIPOS>ATOM
      1 C         140.0589  143.4221  161.7254 C.ar    1  UNL1        0.1859
      2 N         139.2040  142.7282  162.7440 N.ar    1  UNL1       -0.2217
      3 C         139.7832  142.3453  164.0737 C.ar    1  UNL1        0.1361
      4 C         138.9283  141.6515  165.0924 C.ar    1  UNL1        0.1227
      5 N         139.5074  141.2687  166.4220 N.ar    1  UNL1       -0.2233
      6 C         140.9415  141.5796  166.7329 C.ar    1  UNL1        0.1662
      7 N         141.7964  142.2734  165.7143 N.ar    1  UNL1       -0.2077
      8 C         141.2173  142.6563  164.3847 C.ar    1  UNL1        0.1671
      9 N         142.0722  143.3501  163.3659 N.ar    1  UNL1       -0.2789
     10 C         141.4930  143.7330  162.0363 C.ar    1  UNL1        0.2934
     11 O         142.3480  144.4268  161.0176 O.2     1  UNL1       -0.2639
     12 C         141.5207  141.1967  168.0626 C.ar    1  UNL1        0.0630
     13 C         141.2249  142.0267  169.2765 C.ar    1  UNL1        0.0652
     14 C         140.3500  143.2396  169.1608 C.3     1  UNL1        0.0523
     15 N         141.8041  141.6437  170.6062 N.ar    1  UNL1       -0.2282
     16 C         142.6790  140.4308  170.7219 C.ar    1  UNL1        0.1982
     17 N         142.9747  139.6008  169.5079 N.ar    1  UNL1       -0.2283
     18 C         142.3956  139.9838  168.1783 C.ar    1  UNL1        0.0644
     19 C         142.6913  139.1538  166.9643 C.3     1  UNL1        0.0405
     20 C         143.6531  138.3410  166.1491 C.3     1  UNL1        0.0063
     21 C         142.2418  138.5290  165.6769 C.3     1  UNL1        0.0063
     22 N         139.4798  143.8050  160.3956 N.pl3   1  UNL1       -0.3106
     23 H         138.8592  144.5664  160.3299 H       1  UNL1        0.1486
     24 C         139.8461  143.0277  159.1662 C.3     1  UNL1        0.1170
     25 C         136.6204  141.5061  156.4221 C.ar    1  UNL1        0.1862
     26 C         137.3058  142.8070  156.1252 C.ar    1  UNL1        0.0377
     27 C         138.3810  143.3141  157.0398 C.ar    1  UNL1        0.0018
     28 C         138.7709  142.5205  158.2515 C.ar    1  UNL1        0.0167
     29 C         138.0856  141.2197  158.5485 C.ar    1  UNL1        0.0977
     30 N         137.0103  140.7125  157.6337 N.ar    1  UNL1       -0.2260
     31 S         135.5452  140.9989  155.5075 S.O2    1  UNL1        0.0250
     32 O         135.8797  142.0751  154.5175 O.2     1  UNL1       -0.1672
     33 O         135.2108  139.9228  156.4974 O.2     1  UNL1       -0.1672
     34 C         133.3229  141.3823  154.2174 C.3     1  UNL1        0.0276
     35 C         134.4700  140.4917  154.5928 C.3     1  UNL1        0.1577
     36 C         143.5063  143.6611  163.6769 C.3     1  UNL1        0.0899
     37 C         143.9251  145.0755  163.9489 C.3     1  UNL1        0.0246
     38 C         144.5216  142.5576  163.7158 C.3     1  UNL1        0.0209
     39 C         145.7684  141.9200  163.1785 C.3     1  UNL1        0.0019
     40 C         145.0332  141.2839  164.3207 C.3     1  UNL1        0.0019
@<TRIPOS>BOND
     1    34    35    1
     2    35    31    1
     3    31    32    2
     4    31    33    2
     5    31    25    1
     6    25    26   ar
     7    26    27   ar
     8    27    28   ar
     9    28    24    1
    10    24    22    1
    11    22     1    1
    12     1     2   ar
    13     2     3   ar
    14     3     4   ar
    15     4     5   ar
    16     5     6   ar
    17     6    12    1
    18    12    13   ar
    19    13    14    1
    20    13    15   ar
    21    15    16   ar
    22    16    17   ar
    23    17    18   ar
    24    18    19    1
    25    19    20    1
    26    20    21    1
    27     6     7   ar
    28     7     8   ar
    29     8     9   ar
    30     9    36    1
    31    36    37    1
    32    36    38    1
    33    38    39    1
    34    39    40    1
    35     9    10   ar
    36    10    11    2
    37    28    29   ar
    38    29    30   ar
    39    30    25   ar
    40    10     1   ar
    41     8     3   ar
    42    40    38    1
    43    18    12   ar
    44    21    19    1
    45    22    23    1
@<TRIPOS>MOLECULE
*****
 40 45 0 0 0
SMALL
GASTEIGER

@<TRIPOS>ATOM
      1 C         141.4121  144.7726  162.0254 C.ar    1  UNL1        0.1859
      2 N         142.6648  144.4460  162.7830 N.ar    1  UNL1       -0.2217
      3 C         142.5905  143.6284  164.0384 C.ar    1  UNL1        0.1361
      4 C         143.8432  143.3017  164.7960 C.ar    1  UNL1        0.1227
      5 N         143.7689  142.4842  166.0513 N.ar    1  UNL1       -0.2233
      6 C         142.4418  141.9933  166.5492 C.ar    1  UNL1        0.1662
      7 N         141.1891  142.3199  165.7917 N.ar    1  UNL1       -0.2077
      8 C         141.2634  143.1375  164.5363 C.ar    1  UNL1        0.1671
      9 N         140.0106  143.4642  163.7787 N.ar    1  UNL1       -0.2789
     10 C         140.0850  144.2817  162.5233 C.ar    1  UNL1        0.2934
     11 O         138.8322  144.6084  161.7657 O.2     1  UNL1       -0.2639
     12 C         142.3675  141.1757  167.8047 C.ar    1  UNL1        0.0630
     13 C         141.9667  141.8217  169.0977 C.ar    1  UNL1        0.0652
     14 C         141.6402  143.2852  169.1354 C.3     1  UNL1        0.0523
     15 N         141.8924  141.0041  170.3532 N.ar    1  UNL1       -0.2282
     16 C         142.2189  139.5405  170.3155 C.ar    1  UNL1        0.1982
     17 N         142.6197  138.8946  169.0223 N.ar    1  UNL1       -0.2283
     18 C         142.6940  139.7122  167.7670 C.ar    1  UNL1        0.0644
     19 C         143.0948  139.0662  166.4738 C.3     1  UNL1        0.0405
     20 C         144.1258  138.8085  165.4152 C.3     1  UNL1        0.0063
     21 C         142.7580  138.2051  165.2927 C.3     1  UNL1        0.0063
     22 N         141.4864  145.5902  160.7700 N.pl3   1  UNL1       -0.3106
     23 H         141.6193  146.5642  160.8240 H       1  UNL1        0.1486
     24 C         141.3583  144.9238  159.4323 C.3     1  UNL1        0.1170
     25 C         142.1963  140.5216  159.0223 C.ar    1  UNL1        0.1862
     26 C         140.8005  140.9969  159.2981 C.ar    1  UNL1        0.0377
     27 C         140.5212  142.4643  159.4348 C.ar    1  UNL1        0.0018
     28 C         141.6376  143.4564  159.2956 C.ar    1  UNL1        0.0167
     29 C         143.0333  142.9811  159.0198 C.ar    1  UNL1        0.0977
     30 N         143.3126  141.5137  158.8831 N.ar    1  UNL1       -0.2260
     31 S         142.4756  139.0542  158.8857 S.O2    1  UNL1        0.0250
     32 O         141.0847  138.8377  158.3675 O.2     1  UNL1       -0.1672
     33 O         143.8665  139.2707  159.4038 O.2     1  UNL1       -0.1672
     34 C         142.7449  136.9444  157.3935 C.3     1  UNL1        0.0276
     35 C         142.7550  137.5868  158.7490 C.3     1  UNL1        0.1577
     36 C         138.6836  142.9733  164.2765 C.3     1  UNL1        0.0899
     37 C         137.7404  143.9210  164.9566 C.3     1  UNL1        0.0246
     38 C         138.2996  141.5348  164.0943 C.3     1  UNL1        0.0209
     39 C         138.1772  140.1436  164.6416 C.3     1  UNL1        0.0019
     40 C         137.7569  140.4344  163.2314 C.3     1  UNL1        0.0019
@<TRIPOS>BOND
     1    34    35    1
     2    35    31    1
     3    31    32    2
     4    31    33    2
     5    31    25    1
     6    25    26   ar
     7    26    27   ar
     8    27    28   ar
     9    28    24    1
    10    24    22    1
    11    22     1    1
    12     1     2   ar
    13     2     3   ar
    14     3     4   ar
    15     4     5   ar
    16     5     6   ar
    17     6    12    1
    18    12    13   ar
    19    13    14    1
    20    13    15   ar
    21    15    16   ar
    22    16    17   ar
    23    17    18   ar
    24    18    19    1
    25    19    20    1
    26    20    21    1
    27     6     7   ar
    28     7     8   ar
    29     8     9   ar
    30     9    36    1
    31    36    37    1
    32    36    38    1
    33    38    39    1
    34    39    40    1
    35     9    10   ar
    36    10    11    2
    37    28    29   ar
    38    29    30   ar
    39    30    25   ar
    40    10     1   ar
    41     8     3   ar
    42    40    38    1
    43    18    12   ar
    44    21    19    1
    45    22    23    1
@<TRIPOS>MOLECULE
*****
 40 45 0 0 0
SMALL
GASTEIGER

@<TRIPOS>ATOM
      1 C         137.8985  140.5115  162.4432 C.ar    1  UNL1        0.1859
      2 N         138.5305  139.5482  163.4038 N.ar    1  UNL1       -0.2217
      3 C         139.3051  140.0624  164.5810 C.ar    1  UNL1        0.1361
      4 C         139.9371  139.0991  165.5415 C.ar    1  UNL1        0.1227
      5 N         140.7116  139.6133  166.7186 N.ar    1  UNL1       -0.2233
      6 C         140.8542  141.0907  166.9352 C.ar    1  UNL1        0.1662
      7 N         140.2222  142.0540  165.9747 N.ar    1  UNL1       -0.2077
      8 C         139.4476  141.5398  164.7976 C.ar    1  UNL1        0.1671
      9 N         138.8156  142.5031  163.8370 N.ar    1  UNL1       -0.2789
     10 C         138.0410  141.9889  162.6598 C.ar    1  UNL1        0.2934
     11 O         137.4089  142.9522  161.6992 O.2     1  UNL1       -0.2639
     12 C         141.6288  141.6049  168.1124 C.ar    1  UNL1        0.0630
     13 C         141.0587  141.4867  169.4948 C.ar    1  UNL1        0.0652
     14 C         139.7141  140.8543  169.7001 C.3     1  UNL1        0.0523
     15 N         141.8333  142.0008  170.6720 N.ar    1  UNL1       -0.2282
     16 C         143.1779  142.6332  170.4668 C.ar    1  UNL1        0.1982
     17 N         143.7480  142.7514  169.0843 N.ar    1  UNL1       -0.2283
     18 C         142.9734  142.2372  167.9072 C.ar    1  UNL1        0.0644
     19 C         143.5434  142.3554  166.5247 C.3     1  UNL1        0.0405
     20 C         144.1731  143.1858  165.4458 C.3     1  UNL1        0.0063
     21 C         143.9010  141.7298  165.2091 C.3     1  UNL1        0.0063
     22 N         137.1239  139.9973  161.2660 N.pl3   1  UNL1       -0.3106
     23 H         136.2020  139.6737  161.3867 H       1  UNL1        0.1486
     24 C         137.7540  139.9763  159.9050 C.3     1  UNL1        0.1170
     25 C         141.9562  141.4865  159.3474 C.ar    1  UNL1        0.1862
     26 C         140.7911  142.3666  159.0039 C.ar    1  UNL1        0.0377
     27 C         139.3904  141.8633  159.1897 C.ar    1  UNL1        0.0018
     28 C         139.1547  140.4797  159.7191 C.ar    1  UNL1        0.0167
     29 C         140.3197  139.5995  160.0626 C.ar    1  UNL1        0.0977
     30 N         141.7205  140.1029  159.8767 N.ar    1  UNL1       -0.2260
     31 S         143.3569  141.9898  159.1615 S.O2    1  UNL1        0.0250
     32 O         143.7883  140.6244  158.7151 O.2     1  UNL1       -0.1672
     33 O         142.9254  143.3553  159.6079 O.2     1  UNL1       -0.1672
     34 C         145.4234  142.3811  157.6362 C.3     1  UNL1        0.0276
     35 C         144.7576  142.4933  158.9757 C.3     1  UNL1        0.1577
     36 C         138.9581  143.9805  164.0536 C.3     1  UNL1        0.0899
     37 C         138.0276  144.6946  164.9886 C.3     1  UNL1        0.0246
     38 C         140.0310  144.7438  163.3352 C.3     1  UNL1        0.0209
     39 C         140.4663  145.6010  162.1838 C.3     1  UNL1        0.0019
     40 C         141.4541  145.2087  163.2423 C.3     1  UNL1        0.0019
@<TRIPOS>BOND
     1    34    35    1
     2    35    31    1
     3    31    32    2
     4    31    33    2
     5    31    25    1
     6    25    26   ar
     7    26    27   ar
     8    27    28   ar
     9    28    24    1
    10    24    22    1
    11    22     1    1
    12     1     2   ar
    13     2     3   ar
    14     3     4   ar
    15     4     5   ar
    16     5     6   ar
    17     6    12    1
    18    12    13   ar
    19    13    14    1
    20    13    15   ar
    21    15    16   ar
    22    16    17   ar
    23    17    18   ar
    24    18    19    1
    25    19    20    1
    26    20    21    1
    27     6     7   ar
    28     7     8   ar
    29     8     9   ar
    30     9    36    1
    31    36    37    1
    32    36    38    1
    33    38    39    1
    34    39    40    1
    35     9    10   ar
    36    10    11    2
    37    28    29   ar
    38    29    30   ar
    39    30    25   ar
    40    10     1   ar
    41     8     3   ar
    42    40    38    1
    43    18    12   ar
    44    21    19    1
    45    22    23    1
@<TRIPOS>MOLECULE
*****
 40 45 0 0 0
SMALL
GASTEIGER

@<TRIPOS>ATOM
      1 C         138.4914  140.4882  161.4809 C.ar    1  UNL1        0.1859
      2 N         139.2148  139.5125  162.3611 N.ar    1  UNL1       -0.2217
      3 C         139.8192  139.9740  163.6541 C.ar    1  UNL1        0.1361
      4 C         140.5426  138.9984  164.5343 C.ar    1  UNL1        0.1227
      5 N         141.1469  139.4599  165.8272 N.ar    1  UNL1       -0.2233
      6 C         141.0277  140.8970  166.2401 C.ar    1  UNL1        0.1662
      7 N         140.3043  141.8727  165.3599 N.ar    1  UNL1       -0.2077
      8 C         139.7000  141.4112  164.0669 C.ar    1  UNL1        0.1671
      9 N         138.9765  142.3868  163.1867 N.ar    1  UNL1       -0.2789
     10 C         138.3722  141.9253  161.8938 C.ar    1  UNL1        0.2934
     11 O         137.6487  142.9010  161.0135 O.2     1  UNL1       -0.2639
     12 C         141.6321  141.3585  167.5331 C.ar    1  UNL1        0.0630
     13 C         140.9544  141.0414  168.8331 C.ar    1  UNL1        0.0652
     14 C         139.6723  140.2627  168.8402 C.3     1  UNL1        0.0523
     15 N         141.5587  141.5028  170.1261 N.ar    1  UNL1       -0.2282
     16 C         142.8408  142.2815  170.1191 C.ar    1  UNL1        0.1982
     17 N         143.5185  142.5986  168.8190 N.ar    1  UNL1       -0.2283
     18 C         142.9142  142.1371  167.5260 C.ar    1  UNL1        0.0644
     19 C         143.5919  142.4542  166.2259 C.3     1  UNL1        0.0405
     20 C         144.1194  142.0103  164.8938 C.3     1  UNL1        0.0063
     21 C         144.2382  143.4475  165.3064 C.3     1  UNL1        0.0063
     22 N         137.8870  140.0267  160.1879 N.pl3   1  UNL1       -0.3106
     23 H         137.0651  139.4849  160.1944 H       1  UNL1        0.1486
     24 C         138.5350  140.3908  158.8850 C.3     1  UNL1        0.1170
     25 C         141.5834  137.6409  157.0424 C.ar    1  UNL1        0.1862
     26 C         141.8329  138.2380  158.3956 C.ar    1  UNL1        0.0377
     27 C         140.8168  139.1546  159.0099 C.ar    1  UNL1        0.0018
     28 C         139.5511  139.4742  158.2708 C.ar    1  UNL1        0.0167
     29 C         139.3016  138.8771  156.9176 C.ar    1  UNL1        0.0977
     30 N         140.3178  137.9604  156.3034 N.ar    1  UNL1       -0.2260
     31 S         142.5995  136.7243  156.4282 S.O2    1  UNL1        0.0250
     32 O         141.5168  135.7352  156.1130 O.2     1  UNL1       -0.1672
     33 O         143.6822  137.7134  156.7434 O.2     1  UNL1       -0.1672
     34 C         143.8127  134.4276  156.3678 C.3     1  UNL1        0.0276
     35 C         143.6157  135.8077  155.8140 C.3     1  UNL1        0.1577
     36 C         138.8574  143.8240  163.5995 C.3     1  UNL1        0.0899
     37 C         137.7692  144.2459  164.5419 C.3     1  UNL1        0.0246
     38 C         139.8263  144.8392  163.0701 C.3     1  UNL1        0.0209
     39 C         140.1353  145.9854  162.1532 C.3     1  UNL1        0.0019
     40 C         141.1957  145.4514  163.0698 C.3     1  UNL1        0.0019
@<TRIPOS>BOND
     1    34    35    1
     2    35    31    1
     3    31    32    2
     4    31    33    2
     5    31    25    1
     6    25    26   ar
     7    26    27   ar
     8    27    28   ar
     9    28    24    1
    10    24    22    1
    11    22     1    1
    12     1     2   ar
    13     2     3   ar
    14     3     4   ar
    15     4     5   ar
    16     5     6   ar
    17     6    12    1
    18    12    13   ar
    19    13    14    1
    20    13    15   ar
    21    15    16   ar
    22    16    17   ar
    23    17    18   ar
    24    18    19    1
    25    19    20    1
    26    20    21    1
    27     6     7   ar
    28     7     8   ar
    29     8     9   ar
    30     9    36    1
    31    36    37    1
    32    36    38    1
    33    38    39    1
    34    39    40    1
    35     9    10   ar
    36    10    11    2
    37    28    29   ar
    38    29    30   ar
    39    30    25   ar
    40    10     1   ar
    41     8     3   ar
    42    40    38    1
    43    18    12   ar
    44    21    19    1
    45    22    23    1
@<TRIPOS>MOLECULE
*****
 40 45 0 0 0
SMALL
GASTEIGER

@<TRIPOS>ATOM
      1 C         143.4087  141.9997  161.1755 C.ar    1  UNL1        0.1859
      2 N         143.6154  140.8093  162.0645 N.ar    1  UNL1       -0.2217
      3 C         142.9679  140.7617  163.4168 C.ar    1  UNL1        0.1361
      4 C         143.1746  139.5713  164.3058 C.ar    1  UNL1        0.1227
      5 N         142.5271  139.5238  165.6580 N.ar    1  UNL1       -0.2233
      6 C         141.6731  140.6666  166.1212 C.ar    1  UNL1        0.1662
      7 N         141.4664  141.8569  165.2323 N.ar    1  UNL1       -0.2077
      8 C         142.1139  141.9045  163.8801 C.ar    1  UNL1        0.1671
      9 N         141.9073  143.0949  162.9910 N.ar    1  UNL1       -0.2789
     10 C         142.5547  143.1425  161.6388 C.ar    1  UNL1        0.2934
     11 O         142.3481  144.3329  160.7498 O.2     1  UNL1       -0.2639
     12 C         141.0256  140.6189  167.4735 C.ar    1  UNL1        0.0630
     13 C         141.7313  141.1980  168.6637 C.ar    1  UNL1        0.0652
     14 C         143.0845  141.8247  168.5017 C.3     1  UNL1        0.0523
     15 N         141.0839  141.1504  170.0160 N.ar    1  UNL1       -0.2282
     16 C         139.7307  140.5237  170.1780 C.ar    1  UNL1        0.1982
     17 N         139.0250  139.9446  168.9877 N.ar    1  UNL1       -0.2283
     18 C         139.6725  139.9923  167.6355 C.ar    1  UNL1        0.0644
     19 C         138.9668  139.4132  166.4452 C.3     1  UNL1        0.0405
     20 C         138.5374  138.2208  165.6428 C.3     1  UNL1        0.0063
     21 C         138.1739  139.6026  165.1861 C.3     1  UNL1        0.0063
     22 N         144.0562  142.0473  159.8232 N.pl3   1  UNL1       -0.3106
     23 H         145.0156  142.2532  159.7438 H       1  UNL1        0.1486
     24 C         143.2418  141.7812  158.5920 C.3     1  UNL1        0.1170
     25 C         143.3180  137.7079  156.6809 C.ar    1  UNL1        0.1862
     26 C         142.4294  137.9659  157.8615 C.ar    1  UNL1        0.0377
     27 C         142.4039  139.3237  158.4985 C.ar    1  UNL1        0.0018
     28 C         143.2672  140.4235  157.9550 C.ar    1  UNL1        0.0167
     29 C         144.1559  140.1654  156.7745 C.ar    1  UNL1        0.0977
     30 N         144.1813  138.8076  156.1374 N.ar    1  UNL1       -0.2260
     31 S         143.3435  136.3502  156.0439 S.O2    1  UNL1        0.0250
     32 O         144.7377  136.6063  155.5536 O.2     1  UNL1       -0.1672
     33 O         141.9492  136.0940  156.5342 O.2     1  UNL1       -0.1672
     34 C         142.2441  134.0296  155.6481 C.3     1  UNL1        0.0276
     35 C         143.3688  134.9923  155.4069 C.3     1  UNL1        0.1577
     36 C         141.0532  144.2377  163.4543 C.3     1  UNL1        0.0899
     37 C         141.6891  145.5387  163.8457 C.3     1  UNL1        0.0246
     38 C         139.5633  144.0796  163.5261 C.3     1  UNL1        0.0209
     39 C         138.1936  144.4379  163.0307 C.3     1  UNL1        0.0019
     40 C         138.3525  143.4473  164.1458 C.3     1  UNL1        0.0019
@<TRIPOS>BOND
     1    34    35    1
     2    35    31    1
     3    31    32    2
     4    31    33    2
     5    31    25    1
     6    25    26   ar
     7    26    27   ar
     8    27    28   ar
     9    28    24    1
    10    24    22    1
    11    22     1    1
    12     1     2   ar
    13     2     3   ar
    14     3     4   ar
    15     4     5   ar
    16     5     6   ar
    17     6    12    1
    18    12    13   ar
    19    13    14    1
    20    13    15   ar
    21    15    16   ar
    22    16    17   ar
    23    17    18   ar
    24    18    19    1
    25    19    20    1
    26    20    21    1
    27     6     7   ar
    28     7     8   ar
    29     8     9   ar
    30     9    36    1
    31    36    37    1
    32    36    38    1
    33    38    39    1
    34    39    40    1
    35     9    10   ar
    36    10    11    2
    37    28    29   ar
    38    29    30   ar
    39    30    25   ar
    40    10     1   ar
    41     8     3   ar
    42    40    38    1
    43    18    12   ar
    44    21    19    1
    45    22    23    1
@<TRIPOS>MOLECULE
*****
 40 45 0 0 0
SMALL
GASTEIGER

@<TRIPOS>ATOM
      1 C         138.2206  140.4492  161.9242 C.ar    1  UNL1        0.1859
      2 N         138.8789  139.4732  162.8536 N.ar    1  UNL1       -0.2217
      3 C         139.5446  139.9620  164.1059 C.ar    1  UNL1        0.1361
      4 C         140.2030  138.9859  165.0353 C.ar    1  UNL1        0.1227
      5 N         140.8686  139.4747  166.2874 N.ar    1  UNL1       -0.2233
      6 C         140.8760  140.9395  166.6102 C.ar    1  UNL1        0.1662
      7 N         140.2176  141.9156  165.6808 N.ar    1  UNL1       -0.2077
      8 C         139.5520  141.4268  164.4286 C.ar    1  UNL1        0.1671
      9 N         138.8936  142.4029  163.4991 N.ar    1  UNL1       -0.2789
     10 C         138.2279  141.9141  162.2470 C.ar    1  UNL1        0.2934
     11 O         137.5695  142.8902  161.3175 O.2     1  UNL1       -0.2639
     12 C         141.5417  141.4283  167.8624 C.ar    1  UNL1        0.0630
     13 C         140.8935  141.1979  169.1953 C.ar    1  UNL1        0.0652
     14 C         139.5796  140.4787  169.2761 C.3     1  UNL1        0.0523
     15 N         141.5592  141.6866  170.4476 N.ar    1  UNL1       -0.2282
     16 C         142.8731  142.4058  170.3668 C.ar    1  UNL1        0.1982
     17 N         143.5212  142.6362  169.0338 N.ar    1  UNL1       -0.2283
     18 C         142.8555  142.1475  167.7816 C.ar    1  UNL1        0.0644
     19 C         143.5037  142.3779  166.4486 C.3     1  UNL1        0.0405
     20 C         143.9363  141.8624  165.1080 C.3     1  UNL1        0.0063
     21 C         144.1937  143.2924  165.4804 C.3     1  UNL1        0.0063
     22 N         137.5549  139.9605  160.6720 N.pl3   1  UNL1       -0.3106
     23 H         136.6026  139.7111  160.6859 H       1  UNL1        0.1486
     24 C         138.3401  139.8517  159.3986 C.3     1  UNL1        0.1170
     25 C         139.1932  143.5359  156.9596 C.ar    1  UNL1        0.1862
     26 C         137.9108  142.7841  156.7592 C.ar    1  UNL1        0.0377
     27 C         137.6264  141.5560  157.5721 C.ar    1  UNL1        0.0018
     28 C         138.6245  141.0797  158.5856 C.ar    1  UNL1        0.0167
     29 C         139.9069  141.8315  158.7861 C.ar    1  UNL1        0.0977
     30 N         140.1913  143.0597  157.9731 N.ar    1  UNL1       -0.2260
     31 S         139.4776  144.7640  156.1467 S.O2    1  UNL1        0.0250
     32 O         138.6454  144.2149  155.0261 O.2     1  UNL1       -0.1672
     33 O         140.3098  145.3131  157.2673 O.2     1  UNL1       -0.1672
     34 C         138.8256  147.1625  155.3904 C.3     1  UNL1        0.0276
     35 C         139.7621  145.9921  155.3337 C.3     1  UNL1        0.1577
     36 C         138.9009  143.8677  163.8219 C.3     1  UNL1        0.0899
     37 C         137.8127  144.4539  164.6719 C.3     1  UNL1        0.0246
     38 C         139.9963  144.7464  163.2947 C.3     1  UNL1        0.0209
     39 C         140.4884  145.7507  162.2951 C.3     1  UNL1        0.0019
     40 C         141.4014  145.2642  163.3812 C.3     1  UNL1        0.0019
@<TRIPOS>BOND
     1    34    35    1
     2    35    31    1
     3    31    32    2
     4    31    33    2
     5    31    25    1
     6    25    26   ar
     7    26    27   ar
     8    27    28   ar
     9    28    24    1
    10    24    22    1
    11    22     1    1
    12     1     2   ar
    13     2     3   ar
    14     3     4   ar
    15     4     5   ar
    16     5     6   ar
    17     6    12    1
    18    12    13   ar
    19    13    14    1
    20    13    15   ar
    21    15    16   ar
    22    16    17   ar
    23    17    18   ar
    24    18    19    1
    25    19    20    1
    26    20    21    1
    27     6     7   ar
    28     7     8   ar
    29     8     9   ar
    30     9    36    1
    31    36    37    1
    32    36    38    1
    33    38    39    1
    34    39    40    1
    35     9    10   ar
    36    10    11    2
    37    28    29   ar
    38    29    30   ar
    39    30    25   ar
    40    10     1   ar
    41     8     3   ar
    42    40    38    1
    43    18    12   ar
    44    21    19    1
    45    22    23    1
@<TRIPOS>MOLECULE
*****
 40 45 0 0 0
SMALL
GASTEIGER

@<TRIPOS>ATOM
      1 C         138.6746  139.0503  164.8448 C.ar    1  UNL1        0.1859
      2 N         137.9480  140.2987  164.4404 N.ar    1  UNL1       -0.2217
      3 C         138.4747  141.1428  163.3179 C.ar    1  UNL1        0.1361
      4 C         137.7482  142.3912  162.9135 C.ar    1  UNL1        0.1227
      5 N         138.2749  143.2353  161.7910 N.ar    1  UNL1       -0.2233
      6 C         139.5282  142.8309  161.0729 C.ar    1  UNL1        0.1662
      7 N         140.2548  141.5825  161.4772 N.ar    1  UNL1       -0.2077
      8 C         139.7280  140.7384  162.5997 C.ar    1  UNL1        0.1671
      9 N         140.4546  139.4899  163.0041 N.ar    1  UNL1       -0.2789
     10 C         139.9279  138.6459  164.1266 C.ar    1  UNL1        0.2934
     11 O         140.6544  137.3974  164.5310 O.2     1  UNL1       -0.2639
     12 C         140.0549  143.6750  159.9503 C.ar    1  UNL1        0.0630
     13 C         139.4707  143.5435  158.5751 C.ar    1  UNL1        0.0652
     14 C         138.3596  142.5680  158.3223 C.3     1  UNL1        0.0523
     15 N         139.9974  144.3877  157.4525 N.ar    1  UNL1       -0.2282
     16 C         141.1084  145.3633  157.7052 C.ar    1  UNL1        0.1982
     17 N         141.6927  145.4947  159.0806 N.ar    1  UNL1       -0.2283
     18 C         141.1660  144.6506  160.2030 C.ar    1  UNL1        0.0644
     19 C         141.7502  144.7821  161.5783 C.3     1  UNL1        0.0405
     20 C         141.6519  145.2817  162.9893 C.3     1  UNL1        0.0063
     21 C         142.8606  144.5101  162.5494 C.3     1  UNL1        0.0063
     22 N         138.1479  138.2061  165.9674 N.pl3   1  UNL1       -0.3106
     23 H         137.9672  137.2495  165.8210 H       1  UNL1        0.1486
     24 C         137.8963  138.8196  167.3128 C.3     1  UNL1        0.1170
     25 C         141.0719  141.3399  169.2656 C.ar    1  UNL1        0.1862
     26 C         139.8051  141.0245  170.0044 C.ar    1  UNL1        0.0377
     27 C         138.7466  140.1844  169.3535 C.ar    1  UNL1        0.0018
     28 C         138.9548  139.6597  167.9637 C.ar    1  UNL1        0.0167
     29 C         140.2216  139.9750  167.2250 C.ar    1  UNL1        0.0977
     30 N         141.2802  140.8152  167.8760 N.ar    1  UNL1       -0.2260
     31 S         142.1304  142.1800  169.9166 S.O2    1  UNL1        0.0250
     32 O         143.1414  141.6671  168.9343 O.2     1  UNL1       -0.1672
     33 O         141.1194  142.6928  170.8988 O.2     1  UNL1       -0.1672
     34 C         144.6228  142.8752  170.1513 C.3     1  UNL1        0.0276
     35 C         143.1890  143.0201  170.5675 C.3     1  UNL1        0.1577
     36 C         141.7079  139.0856  162.2859 C.3     1  UNL1        0.0899
     37 C         141.6309  138.1682  161.1016 C.3     1  UNL1        0.0246
     38 C         143.0381  139.5986  162.7520 C.3     1  UNL1        0.0209
     39 C         144.0283  140.7187  162.8737 C.3     1  UNL1        0.0019
     40 C         144.3520  139.3670  163.4376 C.3     1  UNL1        0.0019
@<TRIPOS>BOND
     1    34    35    1
     2    35    31    1
     3    31    32    2
     4    31    33    2
     5    31    25    1
     6    25    26   ar
     7    26    27   ar
     8    27    28   ar
     9    28    24    1
    10    24    22    1
    11    22     1    1
    12     1     2   ar
    13     2     3   ar
    14     3     4   ar
    15     4     5   ar
    16     5     6   ar
    17     6    12    1
    18    12    13   ar
    19    13    14    1
    20    13    15   ar
    21    15    16   ar
    22    16    17   ar
    23    17    18   ar
    24    18    19    1
    25    19    20    1
    26    20    21    1
    27     6     7   ar
    28     7     8   ar
    29     8     9   ar
    30     9    36    1
    31    36    37    1
    32    36    38    1
    33    38    39    1
    34    39    40    1
    35     9    10   ar
    36    10    11    2
    37    28    29   ar
    38    29    30   ar
    39    30    25   ar
    40    10     1   ar
    41     8     3   ar
    42    40    38    1
    43    18    12   ar
    44    21    19    1
    45    22    23    1
