@<TRIPOS>MOLECULE
*****
 32 36 0 0 0
SMALL
GASTEIGER

@<TRIPOS>ATOM
      1 N         141.8520  142.5382  165.8052 N.3     1  UNL1       -0.2688
      2 C         140.3549  142.5285  165.8982 C.3     1  UNL1        0.0742
      3 C         139.8041  142.8520  164.5410 C.3     1  UNL1        0.0400
      4 C         140.9608  143.0617  163.6093 C.3     1  UNL1        0.0540
      5 C         142.2264  142.8678  164.3906 C.3     1  UNL1        0.0757
      6 C         141.9538  143.3114  162.5131 C.3     1  UNL1        0.0938
      7 N         140.8296  143.5473  161.5484 N.pl3   1  UNL1       -0.3073
      8 C         139.8366  143.2976  162.6446 C.3     1  UNL1        0.0938
      9 C         140.7369  143.8907  160.0912 C.ar    1  UNL1        0.0478
     10 C         140.6263  145.3243  159.6640 C.ar    1  UNL1        0.0145
     11 C         140.5336  145.6676  158.2068 C.ar    1  UNL1        0.0013
     12 C         140.5515  144.5774  157.1767 C.ar    1  UNL1        0.0001
     13 C         140.6622  143.1438  157.6039 C.ar    1  UNL1        0.0013
     14 C         140.7549  142.8005  159.0611 C.ar    1  UNL1        0.0145
     15 C         142.8069  142.2661  166.9295 C.3     1  UNL1        0.0992
     16 O         140.7309  140.4316  172.2516 O.3     1  UNL1       -0.5055
     17 C         141.2499  140.8902  170.9211 C.ar    1  UNL1        0.1337
     18 C         141.5533  139.8869  169.8481 C.ar    1  UNL1        0.0363
     19 C         142.0723  140.3456  168.5176 C.ar    1  UNL1        0.0002
     20 C         142.2879  141.8075  168.2601 C.ar    1  UNL1       -0.0059
     21 C         141.9845  142.8108  169.3331 C.ar    1  UNL1        0.0002
     22 C         141.4655  142.3521  170.6636 C.ar    1  UNL1        0.0363
     23 H         140.5963  139.5184  172.4124 H       1  UNL1        0.2922
     24 C         138.3516  142.9489  164.1791 C.3     1  UNL1        0.0885
     25 N         137.4377  141.7857  164.4273 N.pl3   1  UNL1       -0.3326
     26 H         136.4934  141.9420  164.6577 H       1  UNL1        0.1468
     27 C         137.9625  140.3842  164.3245 C.ar    1  UNL1        0.0446
     28 C         138.2507  139.7882  162.9785 C.ar    1  UNL1        0.0143
     29 C         138.7755  138.3867  162.8756 C.ar    1  UNL1        0.0013
     30 C         139.0120  137.5813  164.1187 C.ar    1  UNL1        0.0001
     31 C         138.7238  138.1774  165.4648 C.ar    1  UNL1        0.0013
     32 C         138.1990  139.5789  165.5676 C.ar    1  UNL1        0.0143
@<TRIPOS>BOND
     1    16    17    1
     2    17    18   ar
     3    18    19   ar
     4    19    20   ar
     5    20    15    1
     6    15     1    1
     7     1     2    1
     8     2     3    1
     9     3    24    1
    10    24    25    1
    11    25    27    1
    12    27    28   ar
    13    28    29   ar
    14    29    30   ar
    15    30    31   ar
    16    31    32   ar
    17     3     4    1
    18     4     5    1
    19     4     6    1
    20     6     7    1
    21     7     9    1
    22     9    10   ar
    23    10    11   ar
    24    11    12   ar
    25    12    13   ar
    26    13    14   ar
    27     7     8    1
    28    20    21   ar
    29    21    22   ar
    30    22    17   ar
    31     5     1    1
    32    14     9   ar
    33    32    27   ar
    34     8     4    1
    35    16    23    1
    36    25    26    1
@<TRIPOS>MOLECULE
*****
 32 36 0 0 0
SMALL
GASTEIGER

@<TRIPOS>ATOM
      1 N         140.7730  139.6191  165.5859 N.3     1  UNL1       -0.2688
      2 C         139.3349  139.9295  165.2939 C.3     1  UNL1        0.0742
      3 C         139.1054  139.7246  163.8257 C.3     1  UNL1        0.0400
      4 C         140.4016  139.2875  163.2106 C.3     1  UNL1        0.0540
      5 C         141.4323  139.2223  164.2983 C.3     1  UNL1        0.0757
      6 C         141.5784  138.8443  162.3926 C.3     1  UNL1        0.0938
      7 N         140.7212  138.8402  161.1616 N.pl3   1  UNL1       -0.3073
      8 C         139.5444  139.2834  161.9796 C.3     1  UNL1        0.0938
      9 C         140.9471  138.5238  159.7129 C.ar    1  UNL1        0.0478
     10 C         142.3333  138.2412  159.2143 C.ar    1  UNL1        0.0145
     11 C         142.5592  137.9249  157.7655 C.ar    1  UNL1        0.0013
     12 C         141.3991  137.8912  156.8154 C.ar    1  UNL1        0.0001
     13 C         140.0129  138.1738  157.3140 C.ar    1  UNL1        0.0013
     14 C         139.7870  138.4901  158.7628 C.ar    1  UNL1        0.0145
     15 C         141.4356  139.6925  166.9297 C.3     1  UNL1        0.0992
     16 O         139.2486  143.3455  171.1573 O.3     1  UNL1       -0.5055
     17 C         139.7954  142.4323  170.1004 C.ar    1  UNL1        0.1337
     18 C         139.4814  140.9661  170.1405 C.ar    1  UNL1        0.0363
     19 C         140.0281  140.0528  169.0836 C.ar    1  UNL1        0.0002
     20 C         140.8888  140.6058  167.9866 C.ar    1  UNL1       -0.0059
     21 C         141.2028  142.0720  167.9465 C.ar    1  UNL1        0.0002
     22 C         140.6560  142.9852  169.0034 C.ar    1  UNL1        0.0363
     23 H         138.7110  143.0001  171.8426 H       1  UNL1        0.2922
     24 C         137.8074  139.9221  163.1003 C.3     1  UNL1        0.0885
     25 N         137.0454  141.2040  163.2618 N.pl3   1  UNL1       -0.3326
     26 H         136.0647  141.1864  163.3466 H       1  UNL1        0.1468
     27 C         137.7776  142.5128  163.2942 C.ar    1  UNL1        0.0446
     28 C         137.8617  143.2937  164.5722 C.ar    1  UNL1        0.0143
     29 C         138.5939  144.6025  164.6046 C.ar    1  UNL1        0.0013
     30 C         139.2420  145.1304  163.3591 C.ar    1  UNL1        0.0001
     31 C         139.1579  144.3494  162.0811 C.ar    1  UNL1        0.0013
     32 C         138.4257  143.0407  162.0487 C.ar    1  UNL1        0.0143
@<TRIPOS>BOND
     1    16    17    1
     2    17    18   ar
     3    18    19   ar
     4    19    20   ar
     5    20    15    1
     6    15     1    1
     7     1     2    1
     8     2     3    1
     9     3    24    1
    10    24    25    1
    11    25    27    1
    12    27    28   ar
    13    28    29   ar
    14    29    30   ar
    15    30    31   ar
    16    31    32   ar
    17     3     4    1
    18     4     5    1
    19     4     6    1
    20     6     7    1
    21     7     9    1
    22     9    10   ar
    23    10    11   ar
    24    11    12   ar
    25    12    13   ar
    26    13    14   ar
    27     7     8    1
    28    20    21   ar
    29    21    22   ar
    30    22    17   ar
    31     5     1    1
    32    14     9   ar
    33    32    27   ar
    34     8     4    1
    35    16    23    1
    36    25    26    1
@<TRIPOS>MOLECULE
*****
 32 36 0 0 0
SMALL
GASTEIGER

@<TRIPOS>ATOM
      1 N         139.7250  139.8015  166.8317 N.3     1  UNL1       -0.2688
      2 C         138.4267  139.9647  166.0984 C.3     1  UNL1        0.0742
      3 C         138.7155  139.9132  164.6273 C.3     1  UNL1        0.0400
      4 C         140.1923  139.7182  164.4516 C.3     1  UNL1        0.0540
      5 C         140.8162  139.6492  165.8139 C.3     1  UNL1        0.0757
      6 C         141.6235  139.5270  164.0449 C.3     1  UNL1        0.0938
      7 N         141.2185  139.5665  162.6011 N.pl3   1  UNL1       -0.3073
      8 C         139.7873  139.7577  163.0078 C.3     1  UNL1        0.0938
      9 C         141.9441  139.4593  161.2926 C.ar    1  UNL1        0.0478
     10 C         142.4942  140.6911  160.6369 C.ar    1  UNL1        0.0145
     11 C         143.2197  140.5839  159.3285 C.ar    1  UNL1        0.0013
     12 C         143.3952  139.2449  158.6757 C.ar    1  UNL1        0.0001
     13 C         142.8451  138.0131  159.3314 C.ar    1  UNL1        0.0013
     14 C         142.1195  138.1203  160.6399 C.ar    1  UNL1        0.0145
     15 C         139.9011  139.7924  168.3213 C.3     1  UNL1        0.0992
     16 O         143.5418  143.7808  170.9363 O.3     1  UNL1       -0.5055
     17 C         142.6316  142.7837  170.2826 C.ar    1  UNL1        0.1337
     18 C         141.2148  143.1583  169.9629 C.ar    1  UNL1        0.0363
     19 C         140.3046  142.1612  169.3092 C.ar    1  UNL1        0.0002
     20 C         140.8113  140.7895  168.9751 C.ar    1  UNL1       -0.0059
     21 C         142.2282  140.4148  169.2947 C.ar    1  UNL1        0.0002
     22 C         143.1383  141.4120  169.9485 C.ar    1  UNL1        0.0363
     23 H         143.2252  144.6376  171.1450 H       1  UNL1        0.2922
     24 C         137.7050  140.0353  163.5256 C.3     1  UNL1        0.0885
     25 N         136.9878  141.3343  163.3062 N.pl3   1  UNL1       -0.3326
     26 H         136.0137  141.3409  163.1640 H       1  UNL1        0.1468
     27 C         137.7549  142.6234  163.3034 C.ar    1  UNL1        0.0446
     28 C         138.4022  143.1082  162.0401 C.ar    1  UNL1        0.0143
     29 C         139.1693  144.3973  162.0373 C.ar    1  UNL1        0.0013
     30 C         139.2891  145.2014  163.2978 C.ar    1  UNL1        0.0001
     31 C         138.6418  144.7165  164.5612 C.ar    1  UNL1        0.0013
     32 C         137.8747  143.4275  164.5640 C.ar    1  UNL1        0.0143
@<TRIPOS>BOND
     1    16    17    1
     2    17    18   ar
     3    18    19   ar
     4    19    20   ar
     5    20    15    1
     6    15     1    1
     7     1     2    1
     8     2     3    1
     9     3    24    1
    10    24    25    1
    11    25    27    1
    12    27    28   ar
    13    28    29   ar
    14    29    30   ar
    15    30    31   ar
    16    31    32   ar
    17     3     4    1
    18     4     5    1
    19     4     6    1
    20     6     7    1
    21     7     9    1
    22     9    10   ar
    23    10    11   ar
    24    11    12   ar
    25    12    13   ar
    26    13    14   ar
    27     7     8    1
    28    20    21   ar
    29    21    22   ar
    30    22    17   ar
    31     5     1    1
    32    14     9   ar
    33    32    27   ar
    34     8     4    1
    35    16    23    1
    36    25    26    1
@<TRIPOS>MOLECULE
*****
 32 36 0 0 0
SMALL
GASTEIGER

@<TRIPOS>ATOM
      1 N         138.0812  141.1584  162.7946 N.3     1  UNL1       -0.2688
      2 C         138.0350  142.6482  162.6260 C.3     1  UNL1        0.0742
      3 C         138.7508  143.2687  163.7890 C.3     1  UNL1        0.0400
      4 C         139.2394  142.1624  164.6763 C.3     1  UNL1        0.0540
      5 C         138.8256  140.8582  164.0617 C.3     1  UNL1        0.0757
      6 C         139.8150  141.2280  165.6989 C.3     1  UNL1        0.0938
      7 N         140.3251  142.4005  166.4832 N.pl3   1  UNL1       -0.3073
      8 C         139.7496  143.3349  165.4605 C.3     1  UNL1        0.0938
      9 C         141.0928  142.5689  167.7608 C.ar    1  UNL1        0.0478
     10 C         140.4271  143.1723  168.9618 C.ar    1  UNL1        0.0145
     11 C         141.1948  143.3406  170.2395 C.ar    1  UNL1        0.0013
     12 C         142.6282  142.9056  170.3160 C.ar    1  UNL1        0.0001
     13 C         143.2940  142.3022  169.1149 C.ar    1  UNL1        0.0013
     14 C         142.5263  142.1338  167.8373 C.ar    1  UNL1        0.0145
     15 C         137.4873  140.1465  161.8600 C.3     1  UNL1        0.0992
     16 O         140.2909  138.7903  156.7316 O.3     1  UNL1       -0.5055
     17 C         139.5900  139.1293  158.0137 C.ar    1  UNL1        0.1337
     18 C         138.5914  140.2480  158.0494 C.ar    1  UNL1        0.0363
     19 C         137.8905  140.5871  159.3315 C.ar    1  UNL1        0.0002
     20 C         138.1883  139.8074  160.5779 C.ar    1  UNL1       -0.0059
     21 C         139.1869  138.6887  160.5422 C.ar    1  UNL1        0.0002
     22 C         139.8877  138.3497  159.2600 C.ar    1  UNL1        0.0363
     23 H         140.1049  139.2773  155.9530 H       1  UNL1        0.2922
     24 C         138.9440  144.7376  164.0235 C.3     1  UNL1        0.0885
     25 N         139.8613  145.5246  163.1352 N.pl3   1  UNL1       -0.3326
     26 H         139.5471  146.3601  162.7199 H       1  UNL1        0.1468
     27 C         141.2571  145.0387  162.8795 C.ar    1  UNL1        0.0446
     28 C         141.5509  144.2050  161.6676 C.ar    1  UNL1        0.0143
     29 C         142.9468  143.7190  161.4118 C.ar    1  UNL1        0.0013
     30 C         144.0489  144.0667  162.3681 C.ar    1  UNL1        0.0001
     31 C         143.7552  144.9004  163.5801 C.ar    1  UNL1        0.0013
     32 C         142.3593  145.3863  163.8357 C.ar    1  UNL1        0.0143
@<TRIPOS>BOND
     1    16    17    1
     2    17    18   ar
     3    18    19   ar
     4    19    20   ar
     5    20    15    1
     6    15     1    1
     7     1     2    1
     8     2     3    1
     9     3    24    1
    10    24    25    1
    11    25    27    1
    12    27    28   ar
    13    28    29   ar
    14    29    30   ar
    15    30    31   ar
    16    31    32   ar
    17     3     4    1
    18     4     5    1
    19     4     6    1
    20     6     7    1
    21     7     9    1
    22     9    10   ar
    23    10    11   ar
    24    11    12   ar
    25    12    13   ar
    26    13    14   ar
    27     7     8    1
    28    20    21   ar
    29    21    22   ar
    30    22    17   ar
    31     5     1    1
    32    14     9   ar
    33    32    27   ar
    34     8     4    1
    35    16    23    1
    36    25    26    1
@<TRIPOS>MOLECULE
*****
 32 36 0 0 0
SMALL
GASTEIGER

@<TRIPOS>ATOM
      1 N         139.8918  144.6913  162.0465 N.3     1  UNL1       -0.2688
      2 C         138.6045  143.9477  162.2466 C.3     1  UNL1        0.0742
      3 C         138.6663  143.2647  163.5807 C.3     1  UNL1        0.0400
      4 C         139.9916  143.5863  164.2051 C.3     1  UNL1        0.0540
      5 C         140.7490  144.4679  163.2570 C.3     1  UNL1        0.0757
      6 C         141.2436  143.7752  165.0095 C.3     1  UNL1        0.0938
      7 N         140.6750  142.9124  166.0970 N.pl3   1  UNL1       -0.3073
      8 C         139.4231  142.7235  165.2925 C.3     1  UNL1        0.0938
      9 C         141.1582  142.4360  167.4347 C.ar    1  UNL1        0.0478
     10 C         142.1958  141.3559  167.5162 C.ar    1  UNL1        0.0145
     11 C         142.6790  140.8794  168.8539 C.ar    1  UNL1        0.0013
     12 C         142.1245  141.4830  170.1101 C.ar    1  UNL1        0.0001
     13 C         141.0869  142.5631  170.0287 C.ar    1  UNL1        0.0013
     14 C         140.6037  143.0396  168.6909 C.ar    1  UNL1        0.0145
     15 C         140.2575  145.5139  160.8467 C.3     1  UNL1        0.0992
     16 O         143.9262  143.2589  156.6687 O.3     1  UNL1       -0.5055
     17 C         143.0090  143.8227  157.7131 C.ar    1  UNL1        0.1337
     18 C         142.9116  143.1668  159.0586 C.ar    1  UNL1        0.0363
     19 C         141.9945  143.7305  160.1031 C.ar    1  UNL1        0.0002
     20 C         141.1747  144.9501  159.8021 C.ar    1  UNL1       -0.0059
     21 C         141.2721  145.6060  158.4566 C.ar    1  UNL1        0.0002
     22 C         142.1893  145.0422  157.4122 C.ar    1  UNL1        0.0363
     23 H         144.4383  142.4971  156.8567 H       1  UNL1        0.2922
     24 C         137.5914  142.4102  164.1843 C.3     1  UNL1        0.0885
     25 N         137.0285  141.2551  163.4105 N.pl3   1  UNL1       -0.3326
     26 H         136.1196  141.3095  163.0361 H       1  UNL1        0.1468
     27 C         137.8505  140.0169  163.2072 C.ar    1  UNL1        0.0446
     28 C         138.5284  139.3663  164.3764 C.ar    1  UNL1        0.0143
     29 C         139.3504  138.1281  164.1731 C.ar    1  UNL1        0.0013
     30 C         139.4944  137.5406  162.8005 C.ar    1  UNL1        0.0001
     31 C         138.8165  138.1912  161.6312 C.ar    1  UNL1        0.0013
     32 C         137.9945  139.4293  161.8346 C.ar    1  UNL1        0.0143
@<TRIPOS>BOND
     1    16    17    1
     2    17    18   ar
     3    18    19   ar
     4    19    20   ar
     5    20    15    1
     6    15     1    1
     7     1     2    1
     8     2     3    1
     9     3    24    1
    10    24    25    1
    11    25    27    1
    12    27    28   ar
    13    28    29   ar
    14    29    30   ar
    15    30    31   ar
    16    31    32   ar
    17     3     4    1
    18     4     5    1
    19     4     6    1
    20     6     7    1
    21     7     9    1
    22     9    10   ar
    23    10    11   ar
    24    11    12   ar
    25    12    13   ar
    26    13    14   ar
    27     7     8    1
    28    20    21   ar
    29    21    22   ar
    30    22    17   ar
    31     5     1    1
    32    14     9   ar
    33    32    27   ar
    34     8     4    1
    35    16    23    1
    36    25    26    1
@<TRIPOS>MOLECULE
*****
 32 36 0 0 0
SMALL
GASTEIGER

@<TRIPOS>ATOM
      1 N         140.6376  140.1428  165.8222 N.3     1  UNL1       -0.2688
      2 C         142.1344  140.0525  165.8601 C.3     1  UNL1        0.0742
      3 C         142.6085  139.6397  164.4982 C.3     1  UNL1        0.0400
      4 C         141.4048  139.4749  163.6186 C.3     1  UNL1        0.0540
      5 C         140.1867  139.7859  164.4368 C.3     1  UNL1        0.0757
      6 C         140.3550  139.2526  162.5704 C.3     1  UNL1        0.0938
      7 N         141.4220  138.9025  161.5760 N.pl3   1  UNL1       -0.3073
      8 C         142.4718  139.1248  162.6241 C.3     1  UNL1        0.0938
      9 C         141.4342  138.4978  160.1316 C.ar    1  UNL1        0.0478
     10 C         140.2010  138.6673  159.2948 C.ar    1  UNL1        0.0145
     11 C         140.2132  138.2625  157.8505 C.ar    1  UNL1        0.0013
     12 C         141.4586  137.6884  157.2430 C.ar    1  UNL1        0.0001
     13 C         142.6919  137.5190  158.0798 C.ar    1  UNL1        0.0013
     14 C         142.6797  137.9237  159.5241 C.ar    1  UNL1        0.0145
     15 C         139.7479  140.5234  166.9683 C.3     1  UNL1        0.0992
     16 O         142.1493  142.4307  172.1254 O.3     1  UNL1       -0.5055
     17 C         141.5489  141.9539  170.8361 C.ar    1  UNL1        0.1337
     18 C         141.1854  140.5084  170.6675 C.ar    1  UNL1        0.0363
     19 C         140.5850  140.0316  169.3782 C.ar    1  UNL1        0.0002
     20 C         140.3483  141.0003  168.2576 C.ar    1  UNL1       -0.0059
     21 C         140.7118  142.4457  168.4263 C.ar    1  UNL1        0.0002
     22 C         141.3121  142.9225  169.7156 C.ar    1  UNL1        0.0363
     23 H         142.2972  141.8257  172.8254 H       1  UNL1        0.2922
     24 C         144.0358  139.4287  164.0880 C.3     1  UNL1        0.0885
     25 N         145.0400  140.5272  164.2746 N.pl3   1  UNL1       -0.3326
     26 H         145.9399  140.3189  164.6153 H       1  UNL1        0.1468
     27 C         144.6732  141.9432  163.9422 C.ar    1  UNL1        0.0446
     28 C         144.4251  142.9318  165.0427 C.ar    1  UNL1        0.0143
     29 C         144.0582  144.3478  164.7104 C.ar    1  UNL1        0.0013
     30 C         143.9394  144.7751  163.2775 C.ar    1  UNL1        0.0001
     31 C         144.1875  143.7865  162.1769 C.ar    1  UNL1        0.0013
     32 C         144.5544  142.3705  162.5093 C.ar    1  UNL1        0.0143
@<TRIPOS>BOND
     1    16    17    1
     2    17    18   ar
     3    18    19   ar
     4    19    20   ar
     5    20    15    1
     6    15     1    1
     7     1     2    1
     8     2     3    1
     9     3    24    1
    10    24    25    1
    11    25    27    1
    12    27    28   ar
    13    28    29   ar
    14    29    30   ar
    15    30    31   ar
    16    31    32   ar
    17     3     4    1
    18     4     5    1
    19     4     6    1
    20     6     7    1
    21     7     9    1
    22     9    10   ar
    23    10    11   ar
    24    11    12   ar
    25    12    13   ar
    26    13    14   ar
    27     7     8    1
    28    20    21   ar
    29    21    22   ar
    30    22    17   ar
    31     5     1    1
    32    14     9   ar
    33    32    27   ar
    34     8     4    1
    35    16    23    1
    36    25    26    1
@<TRIPOS>MOLECULE
*****
 32 36 0 0 0
SMALL
GASTEIGER

@<TRIPOS>ATOM
      1 N         142.4518  140.5037  165.8321 N.3     1  UNL1       -0.2688
      2 C         142.7013  141.8486  165.2163 C.3     1  UNL1        0.0742
      3 C         142.5381  141.7158  163.7311 C.3     1  UNL1        0.0400
      4 C         142.1877  140.2890  163.4291 C.3     1  UNL1        0.0540
      5 C         142.1344  139.5399  164.7275 C.3     1  UNL1        0.0757
      6 C         141.8326  138.9303  162.9017 C.3     1  UNL1        0.0938
      7 N         141.8303  139.4736  161.5035 N.pl3   1  UNL1       -0.3073
      8 C         142.1854  140.8323  162.0309 C.3     1  UNL1        0.0938
      9 C         141.5776  138.8971  160.1420 C.ar    1  UNL1        0.0478
     10 C         140.1993  138.9433  159.5520 C.ar    1  UNL1        0.0145
     11 C         139.9466  138.3668  158.1905 C.ar    1  UNL1        0.0013
     12 C         141.0722  137.7441  157.4189 C.ar    1  UNL1        0.0001
     13 C         142.4504  137.6979  158.0089 C.ar    1  UNL1        0.0013
     14 C         142.7032  138.2744  159.3705 C.ar    1  UNL1        0.0145
     15 C         142.5096  140.1796  167.2955 C.3     1  UNL1        0.0992
     16 O         139.2028  143.3182  171.1961 O.3     1  UNL1       -0.5055
     17 C         140.0295  142.5336  170.2210 C.ar    1  UNL1        0.1337
     18 C         139.5626  141.1861  169.7558 C.ar    1  UNL1        0.0363
     19 C         140.3893  140.4015  168.7806 C.ar    1  UNL1        0.0002
     20 C         141.6829  140.9643  168.2707 C.ar    1  UNL1       -0.0059
     21 C         142.1497  142.3118  168.7359 C.ar    1  UNL1        0.0002
     22 C         141.3230  143.0964  169.7111 C.ar    1  UNL1        0.0363
     23 H         138.3948  142.9666  171.5146 H       1  UNL1        0.2922
     24 C         142.6973  142.8167  162.7248 C.3     1  UNL1        0.0885
     25 N         141.9468  144.1040  162.8964 N.pl3   1  UNL1       -0.3326
     26 H         142.4105  144.9640  162.7757 H       1  UNL1        0.1468
     27 C         140.4896  144.0810  163.2517 C.ar    1  UNL1        0.0446
     28 C         140.0285  144.6444  164.5632 C.ar    1  UNL1        0.0143
     29 C         138.5714  144.6214  164.9187 C.ar    1  UNL1        0.0013
     30 C         137.5754  144.0350  163.9626 C.ar    1  UNL1        0.0001
     31 C         138.0365  143.4716  162.6511 C.ar    1  UNL1        0.0013
     32 C         139.4936  143.4946  162.2957 C.ar    1  UNL1        0.0143
@<TRIPOS>BOND
     1    16    17    1
     2    17    18   ar
     3    18    19   ar
     4    19    20   ar
     5    20    15    1
     6    15     1    1
     7     1     2    1
     8     2     3    1
     9     3    24    1
    10    24    25    1
    11    25    27    1
    12    27    28   ar
    13    28    29   ar
    14    29    30   ar
    15    30    31   ar
    16    31    32   ar
    17     3     4    1
    18     4     5    1
    19     4     6    1
    20     6     7    1
    21     7     9    1
    22     9    10   ar
    23    10    11   ar
    24    11    12   ar
    25    12    13   ar
    26    13    14   ar
    27     7     8    1
    28    20    21   ar
    29    21    22   ar
    30    22    17   ar
    31     5     1    1
    32    14     9   ar
    33    32    27   ar
    34     8     4    1
    35    16    23    1
    36    25    26    1
@<TRIPOS>MOLECULE
*****
 32 36 0 0 0
SMALL
GASTEIGER

@<TRIPOS>ATOM
      1 N         140.1895  142.3266  165.1790 N.3     1  UNL1       -0.2688
      2 C         140.8747  143.6232  164.8636 C.3     1  UNL1        0.0742
      3 C         140.8458  143.8128  163.3759 C.3     1  UNL1        0.0400
      4 C         140.1428  142.6334  162.7719 C.3     1  UNL1        0.0540
      5 C         139.7372  141.7149  163.8862 C.3     1  UNL1        0.0757
      6 C         139.4794  141.5597  161.9613 C.3     1  UNL1        0.0938
      7 N         139.7850  142.3196  160.7046 N.pl3   1  UNL1       -0.3073
      8 C         140.4484  143.3933  161.5152 C.3     1  UNL1        0.0938
      9 C         139.5320  142.0977  159.2428 C.ar    1  UNL1        0.0478
     10 C         140.5801  141.4454  158.3908 C.ar    1  UNL1        0.0145
     11 C         140.3271  141.2235  156.9291 C.ar    1  UNL1        0.0013
     12 C         139.0260  141.6538  156.3193 C.ar    1  UNL1        0.0001
     13 C         137.9779  142.3061  157.1713 C.ar    1  UNL1        0.0013
     14 C         138.2309  142.5280  158.6331 C.ar    1  UNL1        0.0145
     15 C         139.9915  141.7441  166.5470 C.3     1  UNL1        0.0992
     16 O         143.3934  143.6098  171.1237 O.3     1  UNL1       -0.5055
     17 C         142.5429  143.1433  169.9795 C.ar    1  UNL1        0.1337
     18 C         141.1020  143.5526  169.9005 C.ar    1  UNL1        0.0363
     19 C         140.2515  143.0861  168.7564 C.ar    1  UNL1        0.0002
     20 C         140.8420  142.2105  167.6912 C.ar    1  UNL1       -0.0059
     21 C         142.2829  141.8013  167.7702 C.ar    1  UNL1        0.0002
     22 C         143.1333  142.2678  168.9144 C.ar    1  UNL1        0.0363
     23 H         143.0245  144.1568  171.7891 H       1  UNL1        0.2922
     24 C         141.4193  144.9773  162.6242 C.3     1  UNL1        0.0885
     25 N         142.9037  145.1899  162.5895 N.pl3   1  UNL1       -0.3326
     26 H         143.2689  146.0776  162.3703 H       1  UNL1        0.1468
     27 C         143.8319  144.0502  162.8887 C.ar    1  UNL1        0.0446
     28 C         144.2964  143.8105  164.2946 C.ar    1  UNL1        0.0143
     29 C         145.2246  142.6707  164.5939 C.ar    1  UNL1        0.0013
     30 C         145.6882  141.7707  163.4871 C.ar    1  UNL1        0.0001
     31 C         145.2236  142.0103  162.0811 C.ar    1  UNL1        0.0013
     32 C         144.2955  143.1501  161.7819 C.ar    1  UNL1        0.0143
@<TRIPOS>BOND
     1    16    17    1
     2    17    18   ar
     3    18    19   ar
     4    19    20   ar
     5    20    15    1
     6    15     1    1
     7     1     2    1
     8     2     3    1
     9     3    24    1
    10    24    25    1
    11    25    27    1
    12    27    28   ar
    13    28    29   ar
    14    29    30   ar
    15    30    31   ar
    16    31    32   ar
    17     3     4    1
    18     4     5    1
    19     4     6    1
    20     6     7    1
    21     7     9    1
    22     9    10   ar
    23    10    11   ar
    24    11    12   ar
    25    12    13   ar
    26    13    14   ar
    27     7     8    1
    28    20    21   ar
    29    21    22   ar
    30    22    17   ar
    31     5     1    1
    32    14     9   ar
    33    32    27   ar
    34     8     4    1
    35    16    23    1
    36    25    26    1
@<TRIPOS>MOLECULE
*****
 32 36 0 0 0
SMALL
GASTEIGER

@<TRIPOS>ATOM
      1 N         143.5581  138.6914  161.9092 N.3     1  UNL1       -0.2688
      2 C         144.3401  139.9520  162.1313 C.3     1  UNL1        0.0742
      3 C         144.0457  140.4418  163.5182 C.3     1  UNL1        0.0400
      4 C         143.0818  139.4839  164.1531 C.3     1  UNL1        0.0540
      5 C         142.7804  138.4021  163.1588 C.3     1  UNL1        0.0757
      6 C         142.1303  138.6670  164.9762 C.3     1  UNL1        0.0938
      7 N         142.2847  139.6330  166.1134 N.pl3   1  UNL1       -0.3073
      8 C         143.2363  140.4498  165.2904 C.3     1  UNL1        0.0938
      9 C         141.7211  139.7384  167.4995 C.ar    1  UNL1        0.0478
     10 C         142.5670  139.3724  168.6829 C.ar    1  UNL1        0.0145
     11 C         142.0034  139.4778  170.0690 C.ar    1  UNL1        0.0013
     12 C         140.5939  139.9492  170.2717 C.ar    1  UNL1        0.0001
     13 C         139.7481  140.3153  169.0883 C.ar    1  UNL1        0.0013
     14 C         140.3117  140.2098  167.7022 C.ar    1  UNL1        0.0145
     15 C         143.5543  137.8651  160.6573 C.3     1  UNL1        0.0992
     16 O         139.0437  138.3825  156.7346 O.3     1  UNL1       -0.5055
     17 C         140.1713  138.2532  157.7153 C.ar    1  UNL1        0.1337
     18 C         141.4984  137.7174  157.2658 C.ar    1  UNL1        0.0363
     19 C         142.6260  137.5881  158.2465 C.ar    1  UNL1        0.0002
     20 C         142.4266  137.9945  159.6766 C.ar    1  UNL1       -0.0059
     21 C         141.0996  138.5302  160.1260 C.ar    1  UNL1        0.0002
     22 C         139.9720  138.6595  159.1453 C.ar    1  UNL1        0.0363
     23 H         139.1683  138.1286  155.8413 H       1  UNL1        0.2922
     24 C         144.6154  141.6732  164.1577 C.3     1  UNL1        0.0885
     25 N         144.7416  142.9402  163.3648 N.pl3   1  UNL1       -0.3326
     26 H         145.6302  143.2611  163.0878 H       1  UNL1        0.1468
     27 C         143.5140  143.7183  162.9938 C.ar    1  UNL1        0.0446
     28 C         142.8539  144.6058  164.0070 C.ar    1  UNL1        0.0143
     29 C         141.6263  145.3839  163.6361 C.ar    1  UNL1        0.0013
     30 C         141.0588  145.2745  162.2519 C.ar    1  UNL1        0.0001
     31 C         141.7190  144.3869  161.2386 C.ar    1  UNL1        0.0013
     32 C         142.9465  143.6089  161.6096 C.ar    1  UNL1        0.0143
@<TRIPOS>BOND
     1    16    17    1
     2    17    18   ar
     3    18    19   ar
     4    19    20   ar
     5    20    15    1
     6    15     1    1
     7     1     2    1
     8     2     3    1
     9     3    24    1
    10    24    25    1
    11    25    27    1
    12    27    28   ar
    13    28    29   ar
    14    29    30   ar
    15    30    31   ar
    16    31    32   ar
    17     3     4    1
    18     4     5    1
    19     4     6    1
    20     6     7    1
    21     7     9    1
    22     9    10   ar
    23    10    11   ar
    24    11    12   ar
    25    12    13   ar
    26    13    14   ar
    27     7     8    1
    28    20    21   ar
    29    21    22   ar
    30    22    17   ar
    31     5     1    1
    32    14     9   ar
    33    32    27   ar
    34     8     4    1
    35    16    23    1
    36    25    26    1
