@<TRIPOS>MOLECULE
*****
 34 36 0 0 0
SMALL
GASTEIGER

@<TRIPOS>ATOM
      1 C         139.8045  141.2053  164.7599 C.ar    1  UNL1       -0.0185
      2 C         140.3172  142.5683  165.1194 C.ar    1  UNL1       -0.0041
      3 C         140.6451  142.8940  166.5465 C.ar    1  UNL1        0.0057
      4 C         140.4603  141.8565  167.6140 C.ar    1  UNL1        0.0696
      5 C         139.9476  140.4934  167.2545 C.ar    1  UNL1        0.0095
      6 C         139.6197  140.1679  165.8274 C.ar    1  UNL1        0.0677
      7 C         138.4929  139.9028  159.0517 C.2     1  UNL1        0.2834
      8 O         137.1229  140.1901  158.5126 O.2     1  UNL1       -0.2666
      9 N         138.8208  140.2284  160.4788 N.am    1  UNL1       -0.2736
     10 C         137.7787  140.8414  161.3667 C.3     1  UNL1        0.0941
     11 C         138.1067  141.1670  162.7937 C.3     1  UNL1        0.0259
     12 C         139.4766  140.8797  163.3328 C.3     1  UNL1        0.0257
     13 C         140.5187  140.2667  162.4449 C.3     1  UNL1        0.0259
     14 C         140.1907  139.9411  161.0179 C.3     1  UNL1        0.0941
     15 C         140.9913  141.4737  157.6590 C.3     1  UNL1        0.1321
     16 N         140.6833  140.0119  157.5236 N.ar    1  UNL1       -0.3046
     17 C         141.4697  139.0156  156.7244 C.ar    1  UNL1        0.0981
     18 C         140.8073  137.6777  156.8706 C.ar    1  UNL1        0.1193
     19 N         139.6115  137.8472  157.7602 N.ar    1  UNL1       -0.2210
     20 C         139.5349  139.2899  158.1638 C.ar    1  UNL1        0.1986
     21 C         140.7881  142.1821  169.0411 C.2     1  UNL1        0.3078
     22 O         139.7072  142.1679  170.0810 O.2     1  UNL1       -0.2516
     23 N         142.1969  142.5219  169.4282 N.am    1  UNL1       -0.1708
     24 H         142.9063  142.5312  168.7456 H       1  UNL1        0.2545
     25 C         142.5248  142.8475  170.8553 C.2     1  UNL1        0.3751
     26 N         141.9571  142.0125  171.9645 N.pl3   1  UNL1       -0.1313
     27 N         143.4204  144.0081  171.1730 N.pl3   1  UNL1       -0.2906
     28 H         141.3693  141.2508  171.7560 H       1  UNL1        0.3060
     29 H         143.7930  144.5561  170.4450 H       1  UNL1        0.2545
     30 H         143.6356  144.2218  172.1096 H       1  UNL1        0.2545
     31 C         139.1070  138.8048  165.4678 C.3     1  UNL1        0.4183
     32 F         138.5943  137.4418  165.1083 F       1  UNL1       -0.1659
     33 F         137.7012  139.2712  165.7043 F       1  UNL1       -0.1659
     34 F         140.5129  138.3383  165.2314 F       1  UNL1       -0.1659
@<TRIPOS>BOND
     1    15    16    1
     2    16    17   ar
     3    17    18   ar
     4    18    19   ar
     5    19    20   ar
     6    20     7    1
     7     7     8    2
     8     7     9   am
     9     9    10    1
    10    10    11    1
    11    11    12    1
    12    12     1    1
    13     1     2   ar
    14     2     3   ar
    15     3     4   ar
    16     4    21    1
    17    21    22    2
    18    21    23   am
    19    23    25    1
    20    25    26    2
    21    25    27    1
    22     4     5   ar
    23     5     6   ar
    24     6    31    1
    25    31    32    1
    26    31    33    1
    27    31    34    1
    28    12    13    1
    29    13    14    1
    30    20    16   ar
    31    14     9    1
    32     6     1   ar
    33    23    24    1
    34    26    28    1
    35    27    29    1
    36    27    30    1
@<TRIPOS>MOLECULE
*****
 34 36 0 0 0
SMALL
GASTEIGER

@<TRIPOS>ATOM
      1 C         141.1647  143.0846  164.5967 C.ar    1  UNL1       -0.0185
      2 C         142.5372  142.6284  164.9945 C.ar    1  UNL1       -0.0041
      3 C         142.8343  142.3077  166.4295 C.ar    1  UNL1        0.0057
      4 C         141.7590  142.4431  167.4664 C.ar    1  UNL1        0.0696
      5 C         140.3865  142.8992  167.0685 C.ar    1  UNL1        0.0095
      6 C         140.0894  143.2200  165.6337 C.ar    1  UNL1        0.0677
      7 C         139.9762  144.3677  158.8572 C.2     1  UNL1        0.2834
      8 O         140.1362  145.7716  158.3539 O.2     1  UNL1       -0.2666
      9 N         140.2733  144.0469  160.2921 N.am    1  UNL1       -0.2736
     10 C         140.7305  145.1301  161.2236 C.3     1  UNL1        0.0941
     11 C         141.0276  144.8093  162.6585 C.3     1  UNL1        0.0259
     12 C         140.8676  143.4053  163.1618 C.3     1  UNL1        0.0257
     13 C         140.4104  142.3222  162.2303 C.3     1  UNL1        0.0259
     14 C         140.1133  142.6430  160.7955 C.3     1  UNL1        0.0941
     15 C         141.9017  142.4754  157.0239 C.3     1  UNL1        0.1321
     16 N         140.4041  142.4147  157.0830 N.ar    1  UNL1       -0.3046
     17 C         139.5286  141.4736  156.3098 C.ar    1  UNL1        0.0981
     18 C         138.1025  141.7618  156.6747 C.ar    1  UNL1        0.1193
     19 N         138.0966  142.8810  157.6734 N.ar    1  UNL1       -0.2210
     20 C         139.5190  143.2845  157.9257 C.ar    1  UNL1        0.1986
     21 C         142.0561  142.1223  168.9013 C.2     1  UNL1        0.3078
     22 O         142.0947  143.2201  169.9227 O.2     1  UNL1       -0.2516
     23 N         142.3146  140.7038  169.3147 N.am    1  UNL1       -0.1708
     24 H         142.2893  139.9833  168.6442 H       1  UNL1        0.2545
     25 C         142.6117  140.3830  170.7496 C.2     1  UNL1        0.3751
     26 N         141.7956  141.0075  171.8422 N.pl3   1  UNL1       -0.1313
     27 N         143.7249  139.4377  171.0918 N.pl3   1  UNL1       -0.2906
     28 H         141.0649  141.6280  171.6176 H       1  UNL1        0.3060
     29 H         144.2606  139.0278  170.3746 H       1  UNL1        0.2545
     30 H         143.9199  139.2272  172.0335 H       1  UNL1        0.2545
     31 C         138.7169  143.6761  165.2357 C.3     1  UNL1        0.4183
     32 F         137.3445  144.1322  164.8378 F       1  UNL1       -0.1659
     33 F         138.3042  142.2497  165.0242 F       1  UNL1       -0.1659
     34 F         139.1296  145.1026  165.4473 F       1  UNL1       -0.1659
@<TRIPOS>BOND
     1    15    16    1
     2    16    17   ar
     3    17    18   ar
     4    18    19   ar
     5    19    20   ar
     6    20     7    1
     7     7     8    2
     8     7     9   am
     9     9    10    1
    10    10    11    1
    11    11    12    1
    12    12     1    1
    13     1     2   ar
    14     2     3   ar
    15     3     4   ar
    16     4    21    1
    17    21    22    2
    18    21    23   am
    19    23    25    1
    20    25    26    2
    21    25    27    1
    22     4     5   ar
    23     5     6   ar
    24     6    31    1
    25    31    32    1
    26    31    33    1
    27    31    34    1
    28    12    13    1
    29    13    14    1
    30    20    16   ar
    31    14     9    1
    32     6     1   ar
    33    23    24    1
    34    26    28    1
    35    27    29    1
    36    27    30    1
@<TRIPOS>MOLECULE
*****
 34 36 0 0 0
SMALL
GASTEIGER

@<TRIPOS>ATOM
      1 C         142.7758  141.4628  164.1901 C.ar    1  UNL1       -0.0185
      2 C         142.2135  140.1042  164.4866 C.ar    1  UNL1       -0.0041
      3 C         142.0419  139.6574  165.9083 C.ar    1  UNL1        0.0057
      4 C         142.4327  140.5693  167.0333 C.ar    1  UNL1        0.0696
      5 C         142.9950  141.9280  166.7367 C.ar    1  UNL1        0.0095
      6 C         143.1666  142.3747  165.3151 C.ar    1  UNL1        0.0677
      7 C         143.4622  143.2497  158.5036 C.2     1  UNL1        0.2834
      8 O         144.6893  142.8554  157.7365 O.2     1  UNL1       -0.2666
      9 N         143.2906  142.8030  159.9253 N.am    1  UNL1       -0.2736
     10 C         144.3461  141.9619  160.5797 C.3     1  UNL1        0.0941
     11 C         144.1745  141.5152  162.0013 C.3     1  UNL1        0.0259
     12 C         142.9474  141.9095  162.7684 C.3     1  UNL1        0.0257
     13 C         141.8918  142.7506  162.1140 C.3     1  UNL1        0.0259
     14 C         142.0634  143.1973  160.6924 C.3     1  UNL1        0.0941
     15 C         140.8341  142.1395  156.9191 C.3     1  UNL1        0.1321
     16 N         141.1986  143.5805  157.1209 N.ar    1  UNL1       -0.3046
     17 C         140.4191  144.7642  156.6297 C.ar    1  UNL1        0.0981
     18 C         141.1453  146.0061  157.0545 C.ar    1  UNL1        0.1193
     19 N         142.3737  145.5899  157.8081 N.ar    1  UNL1       -0.2210
     20 C         142.4066  144.0908  157.8492 C.ar    1  UNL1        0.1986
     21 C         142.2611  140.1226  168.4549 C.2     1  UNL1        0.3078
     22 O         143.1307  139.0332  169.0089 O.2     1  UNL1       -0.2516
     23 N         141.2200  140.7654  169.3226 N.am    1  UNL1       -0.1708
     24 H         140.6492  141.4804  168.9590 H       1  UNL1        0.2545
     25 C         141.0484  140.3187  170.7443 C.2     1  UNL1        0.3751
     26 N         142.1398  140.5624  171.7439 N.pl3   1  UNL1       -0.1313
     27 N         139.7853  139.6283  171.1662 N.pl3   1  UNL1       -0.2906
     28 H         142.9688  141.0155  171.4669 H       1  UNL1        0.3060
     29 H         139.0690  139.4684  170.5101 H       1  UNL1        0.2545
     30 H         139.6727  139.3352  172.0993 H       1  UNL1        0.2545
     31 C         143.7289  143.7333  165.0185 C.3     1  UNL1        0.4183
     32 F         144.2913  145.0919  164.7220 F       1  UNL1       -0.1659
     33 F         145.1194  143.1859  165.1478 F       1  UNL1       -0.1659
     34 F         142.3384  144.2807  164.8893 F       1  UNL1       -0.1659
@<TRIPOS>BOND
     1    15    16    1
     2    16    17   ar
     3    17    18   ar
     4    18    19   ar
     5    19    20   ar
     6    20     7    1
     7     7     8    2
     8     7     9   am
     9     9    10    1
    10    10    11    1
    11    11    12    1
    12    12     1    1
    13     1     2   ar
    14     2     3   ar
    15     3     4   ar
    16     4    21    1
    17    21    22    2
    18    21    23   am
    19    23    25    1
    20    25    26    2
    21    25    27    1
    22     4     5   ar
    23     5     6   ar
    24     6    31    1
    25    31    32    1
    26    31    33    1
    27    31    34    1
    28    12    13    1
    29    13    14    1
    30    20    16   ar
    31    14     9    1
    32     6     1   ar
    33    23    24    1
    34    26    28    1
    35    27    29    1
    36    27    30    1
@<TRIPOS>MOLECULE
*****
 34 36 0 0 0
SMALL
GASTEIGER

@<TRIPOS>ATOM
      1 C         141.5277  143.1131  164.4530 C.ar    1  UNL1       -0.0185
      2 C         140.4423  142.9734  165.4788 C.ar    1  UNL1       -0.0041
      3 C         140.7857  142.5814  166.8855 C.ar    1  UNL1        0.0057
      4 C         142.2145  142.3291  167.2661 C.ar    1  UNL1        0.0696
      5 C         143.2999  142.4688  166.2401 C.ar    1  UNL1        0.0095
      6 C         142.9564  142.8608  164.8336 C.ar    1  UNL1        0.0677
      7 C         140.1540  144.6812  158.8267 C.2     1  UNL1        0.2834
      8 O         140.0437  146.1309  158.4579 O.2     1  UNL1       -0.2666
      9 N         140.4974  144.2892  160.2333 N.am    1  UNL1       -0.2736
     10 C         140.7305  145.3469  161.2710 C.3     1  UNL1        0.0941
     11 C         141.0739  144.9549  162.6776 C.3     1  UNL1        0.0259
     12 C         141.1842  143.5051  163.0464 C.3     1  UNL1        0.0257
     13 C         140.9512  142.4474  162.0087 C.3     1  UNL1        0.0259
     14 C         140.6078  142.8394  160.6021 C.3     1  UNL1        0.0941
     15 C         142.4278  143.3472  156.9032 C.3     1  UNL1        0.1321
     16 N         140.9661  143.0103  156.9049 N.ar    1  UNL1       -0.3046
     17 C         140.2930  142.0011  156.0226 C.ar    1  UNL1        0.0981
     18 C         138.8318  141.9905  156.3616 C.ar    1  UNL1        0.1193
     19 N         138.6019  142.9932  157.4533 N.ar    1  UNL1       -0.2210
     20 C         139.9210  143.6235  157.7890 C.ar    1  UNL1        0.1986
     21 C         142.5580  141.9371  168.6726 C.2     1  UNL1        0.3078
     22 O         143.7744  142.5120  169.3357 O.2     1  UNL1       -0.2516
     23 N         141.6849  140.9702  169.4161 N.am    1  UNL1       -0.1708
     24 H         140.8865  140.5928  168.9809 H       1  UNL1        0.2545
     25 C         142.0284  140.5781  170.8227 C.2     1  UNL1        0.3751
     26 N         141.0387  140.8039  171.9271 N.pl3   1  UNL1       -0.1313
     27 N         143.3614  139.9603  171.1249 N.pl3   1  UNL1       -0.2906
     28 H         140.1638  141.2094  171.7287 H       1  UNL1        0.3060
     29 H         144.0109  139.8121  170.4000 H       1  UNL1        0.2545
     30 H         143.5868  139.7030  172.0480 H       1  UNL1        0.2545
     31 C         144.0418  143.0006  163.8077 C.3     1  UNL1        0.4183
     32 F         145.1271  143.1403  162.7818 F       1  UNL1       -0.1659
     33 F         144.1761  144.4552  164.1480 F       1  UNL1       -0.1659
     34 F         143.9075  141.5459  163.4674 F       1  UNL1       -0.1659
@<TRIPOS>BOND
     1    15    16    1
     2    16    17   ar
     3    17    18   ar
     4    18    19   ar
     5    19    20   ar
     6    20     7    1
     7     7     8    2
     8     7     9   am
     9     9    10    1
    10    10    11    1
    11    11    12    1
    12    12     1    1
    13     1     2   ar
    14     2     3   ar
    15     3     4   ar
    16     4    21    1
    17    21    22    2
    18    21    23   am
    19    23    25    1
    20    25    26    2
    21    25    27    1
    22     4     5   ar
    23     5     6   ar
    24     6    31    1
    25    31    32    1
    26    31    33    1
    27    31    34    1
    28    12    13    1
    29    13    14    1
    30    20    16   ar
    31    14     9    1
    32     6     1   ar
    33    23    24    1
    34    26    28    1
    35    27    29    1
    36    27    30    1
@<TRIPOS>MOLECULE
*****
 34 36 0 0 0
SMALL
GASTEIGER

@<TRIPOS>ATOM
      1 C         140.5217  142.9433  162.8087 C.ar    1  UNL1       -0.0185
      2 C         141.7516  142.5995  162.0220 C.ar    1  UNL1       -0.0041
      3 C         142.0106  143.2684  160.7045 C.ar    1  UNL1        0.0057
      4 C         141.0395  144.2810  160.1738 C.ar    1  UNL1        0.0696
      5 C         139.8095  144.6248  160.9606 C.ar    1  UNL1        0.0095
      6 C         139.5506  143.9559  162.2780 C.ar    1  UNL1        0.0677
      7 C         139.4858  140.2679  168.0784 C.2     1  UNL1        0.2834
      8 O         138.4969  139.1435  168.1671 O.2     1  UNL1       -0.2666
      9 N         139.7447  140.9368  166.7609 N.am    1  UNL1       -0.2736
     10 C         139.0148  140.4812  165.5322 C.3     1  UNL1        0.0941
     11 C         139.2738  141.1501  164.2148 C.3     1  UNL1        0.0259
     12 C         140.2627  142.2745  164.1261 C.3     1  UNL1        0.0257
     13 C         140.9926  142.7300  165.3548 C.3     1  UNL1        0.0259
     14 C         140.7336  142.0612  166.6722 C.3     1  UNL1        0.0941
     15 C         142.4942  139.3678  168.9666 C.3     1  UNL1        0.1321
     16 N         141.5985  140.3097  169.7153 N.ar    1  UNL1       -0.3046
     17 C         141.9284  141.0033  171.0038 C.ar    1  UNL1        0.0981
     18 C         140.7494  141.8457  171.3918 C.ar    1  UNL1        0.1193
     19 N         139.6910  141.6727  170.3431 N.ar    1  UNL1       -0.2210
     20 C         140.2157  140.7235  169.3070 C.ar    1  UNL1        0.1986
     21 C         141.2984  144.9498  158.8564 C.2     1  UNL1        0.3078
     22 O         142.6911  144.9998  158.3015 O.2     1  UNL1       -0.2516
     23 N         140.1647  145.5687  158.0939 N.am    1  UNL1       -0.1708
     24 H         139.2506  145.5359  158.4581 H       1  UNL1        0.2545
     25 C         140.4235  146.2376  156.7764 C.2     1  UNL1        0.3751
     26 N         141.4252  145.6554  155.8237 N.pl3   1  UNL1       -0.1313
     27 N         139.6807  147.4886  156.4117 N.pl3   1  UNL1       -0.2906
     28 H         141.9128  144.8342  156.0631 H       1  UNL1        0.3060
     29 H         139.0233  147.8707  157.0370 H       1  UNL1        0.2545
     30 H         139.8506  147.9276  155.5470 H       1  UNL1        0.2545
     31 C         138.3206  144.2997  163.0647 C.3     1  UNL1        0.4183
     32 F         137.0906  144.6434  163.8514 F       1  UNL1       -0.1659
     33 F         137.5360  143.2918  162.2784 F       1  UNL1       -0.1659
     34 F         139.1052  145.3076  163.8511 F       1  UNL1       -0.1659
@<TRIPOS>BOND
     1    15    16    1
     2    16    17   ar
     3    17    18   ar
     4    18    19   ar
     5    19    20   ar
     6    20     7    1
     7     7     8    2
     8     7     9   am
     9     9    10    1
    10    10    11    1
    11    11    12    1
    12    12     1    1
    13     1     2   ar
    14     2     3   ar
    15     3     4   ar
    16     4    21    1
    17    21    22    2
    18    21    23   am
    19    23    25    1
    20    25    26    2
    21    25    27    1
    22     4     5   ar
    23     5     6   ar
    24     6    31    1
    25    31    32    1
    26    31    33    1
    27    31    34    1
    28    12    13    1
    29    13    14    1
    30    20    16   ar
    31    14     9    1
    32     6     1   ar
    33    23    24    1
    34    26    28    1
    35    27    29    1
    36    27    30    1
@<TRIPOS>MOLECULE
*****
 34 36 0 0 0
SMALL
GASTEIGER

@<TRIPOS>ATOM
      1 C         140.7858  139.8496  164.0815 C.ar    1  UNL1       -0.0185
      2 C         139.3497  139.9596  164.5006 C.ar    1  UNL1       -0.0041
      3 C         138.9926  139.9749  165.9574 C.ar    1  UNL1        0.0057
      4 C         140.0716  139.8802  166.9951 C.ar    1  UNL1        0.0696
      5 C         141.5077  139.7702  166.5760 C.ar    1  UNL1        0.0095
      6 C         141.8647  139.7549  165.1192 C.ar    1  UNL1        0.0677
      7 C         142.2142  139.7884  158.2543 C.2     1  UNL1        0.2834
      8 O         142.5235  141.0730  157.5444 O.2     1  UNL1       -0.2666
      9 N         141.8571  139.8037  159.7112 N.am    1  UNL1       -0.2736
     10 C         141.8093  141.1036  160.4580 C.3     1  UNL1        0.0941
     11 C         141.4522  141.1189  161.9148 C.3     1  UNL1        0.0259
     12 C         141.1429  139.8343  162.6247 C.3     1  UNL1        0.0257
     13 C         141.1907  138.5343  161.8778 C.3     1  UNL1        0.0259
     14 C         141.5478  138.5190  160.4211 C.3     1  UNL1        0.0941
     15 C         139.6412  138.1312  157.1216 C.3     1  UNL1        0.1321
     16 N         141.0793  137.7267  156.9868 N.ar    1  UNL1       -0.3046
     17 C         141.5873  136.4894  156.3077 C.ar    1  UNL1        0.0981
     18 C         143.0839  136.4866  156.4086 C.ar    1  UNL1        0.1193
     19 N         143.5009  137.7220  157.1501 N.ar    1  UNL1       -0.2210
     20 C         142.2620  138.4884  157.5075 C.ar    1  UNL1        0.1986
     21 C         139.7146  139.8955  168.4519 C.2     1  UNL1        0.3078
     22 O         138.3407  139.4845  168.8917 O.2     1  UNL1       -0.2516
     23 N         140.7314  140.3219  169.4688 N.am    1  UNL1       -0.1708
     24 H         141.6331  140.5917  169.1801 H       1  UNL1        0.2545
     25 C         140.3744  140.3372  170.9257 C.2     1  UNL1        0.3751
     26 N         140.6941  141.5396  171.7636 N.pl3   1  UNL1       -0.1313
     27 N         139.6977  139.1502  171.5446 N.pl3   1  UNL1       -0.2906
     28 H         141.1382  142.3187  171.3574 H       1  UNL1        0.3060
     29 H         139.4879  138.3611  170.9946 H       1  UNL1        0.2545
     30 H         139.4634  139.1603  172.5008 H       1  UNL1        0.2545
     31 C         143.3008  139.6448  164.7001 C.3     1  UNL1        0.4183
     32 F         144.7369  139.5347  164.2810 F       1  UNL1       -0.1659
     33 F         143.1745  138.1507  164.6598 F       1  UNL1       -0.1659
     34 F         143.4272  141.1389  164.7404 F       1  UNL1       -0.1659
@<TRIPOS>BOND
     1    15    16    1
     2    16    17   ar
     3    17    18   ar
     4    18    19   ar
     5    19    20   ar
     6    20     7    1
     7     7     8    2
     8     7     9   am
     9     9    10    1
    10    10    11    1
    11    11    12    1
    12    12     1    1
    13     1     2   ar
    14     2     3   ar
    15     3     4   ar
    16     4    21    1
    17    21    22    2
    18    21    23   am
    19    23    25    1
    20    25    26    2
    21    25    27    1
    22     4     5   ar
    23     5     6   ar
    24     6    31    1
    25    31    32    1
    26    31    33    1
    27    31    34    1
    28    12    13    1
    29    13    14    1
    30    20    16   ar
    31    14     9    1
    32     6     1   ar
    33    23    24    1
    34    26    28    1
    35    27    29    1
    36    27    30    1
@<TRIPOS>MOLECULE
*****
 34 36 0 0 0
SMALL
GASTEIGER

@<TRIPOS>ATOM
      1 C         139.8239  141.1743  164.6932 C.ar    1  UNL1       -0.0185
      2 C         139.5288  140.1629  165.7608 C.ar    1  UNL1       -0.0041
      3 C         139.8478  140.4702  167.1939 C.ar    1  UNL1        0.0057
      4 C         140.4620  141.7890  167.5594 C.ar    1  UNL1        0.0696
      5 C         140.7571  142.8005  166.4917 C.ar    1  UNL1        0.0095
      6 C         140.4380  142.4932  165.0586 C.ar    1  UNL1        0.0677
      7 C         138.5476  139.9451  158.9607 C.2     1  UNL1        0.2834
      8 O         137.1978  140.2869  158.4029 O.2     1  UNL1       -0.2666
      9 N         138.8667  140.2524  160.3939 N.am    1  UNL1       -0.2736
     10 C         137.8359  140.9015  161.2692 C.3     1  UNL1        0.0941
     11 C         138.1550  141.2088  162.7022 C.3     1  UNL1        0.0259
     12 C         139.5048  140.8670  163.2600 C.3     1  UNL1        0.0257
     13 C         140.5356  140.2179  162.3847 C.3     1  UNL1        0.0259
     14 C         140.2165  139.9106  160.9517 C.3     1  UNL1        0.0941
     15 C         141.0971  141.4347  157.5711 C.3     1  UNL1        0.1321
     16 N         140.7502  139.9806  157.4467 N.ar    1  UNL1       -0.3046
     17 C         141.5144  138.9560  156.6617 C.ar    1  UNL1        0.0981
     18 C         140.8147  137.6381  156.8153 C.ar    1  UNL1        0.1193
     19 N         139.6182  137.8482  157.6953 N.ar    1  UNL1       -0.2210
     20 C         139.5784  139.2960  158.0855 C.ar    1  UNL1        0.1986
     21 C         140.7810  142.0964  168.9924 C.2     1  UNL1        0.3078
     22 O         139.7192  141.9599  170.0431 O.2     1  UNL1       -0.2516
     23 N         142.1619  142.5402  169.3748 N.am    1  UNL1       -0.1708
     24 H         142.8587  142.6298  168.6851 H       1  UNL1        0.2545
     25 C         142.4810  142.8476  170.8079 C.2     1  UNL1        0.3751
     26 N         141.9067  141.9984  171.9029 N.pl3   1  UNL1       -0.1313
     27 N         143.3743  144.0042  171.1459 N.pl3   1  UNL1       -0.2906
     28 H         141.3204  141.2393  171.6810 H       1  UNL1        0.3060
     29 H         143.7512  144.5615  170.4272 H       1  UNL1        0.2545
     30 H         143.5837  144.2059  172.0865 H       1  UNL1        0.2545
     31 C         140.7331  143.5046  163.9909 C.3     1  UNL1        0.4183
     32 F         141.0283  144.5160  162.9233 F       1  UNL1       -0.1659
     33 F         142.0997  142.9136  163.8088 F       1  UNL1       -0.1659
     34 F         139.3666  144.0956  164.1730 F       1  UNL1       -0.1659
@<TRIPOS>BOND
     1    15    16    1
     2    16    17   ar
     3    17    18   ar
     4    18    19   ar
     5    19    20   ar
     6    20     7    1
     7     7     8    2
     8     7     9   am
     9     9    10    1
    10    10    11    1
    11    11    12    1
    12    12     1    1
    13     1     2   ar
    14     2     3   ar
    15     3     4   ar
    16     4    21    1
    17    21    22    2
    18    21    23   am
    19    23    25    1
    20    25    26    2
    21    25    27    1
    22     4     5   ar
    23     5     6   ar
    24     6    31    1
    25    31    32    1
    26    31    33    1
    27    31    34    1
    28    12    13    1
    29    13    14    1
    30    20    16   ar
    31    14     9    1
    32     6     1   ar
    33    23    24    1
    34    26    28    1
    35    27    29    1
    36    27    30    1
@<TRIPOS>MOLECULE
*****
 34 36 0 0 0
SMALL
GASTEIGER

@<TRIPOS>ATOM
      1 C         142.3520  139.2433  163.7799 C.ar    1  UNL1       -0.0185
      2 C         143.5995  139.0695  164.5945 C.ar    1  UNL1       -0.0041
      3 C         143.5249  139.0831  166.0927 C.ar    1  UNL1        0.0057
      4 C         142.2028  139.2706  166.7761 C.ar    1  UNL1        0.0696
      5 C         140.9554  139.4444  165.9614 C.ar    1  UNL1        0.0095
      6 C         141.0300  139.4308  164.4634 C.ar    1  UNL1        0.0677
      7 C         142.6503  139.1890  157.7875 C.2     1  UNL1        0.2834
      8 O         142.8642  140.4692  157.0356 O.2     1  UNL1       -0.2666
      9 N         142.5757  139.2026  159.2857 N.am    1  UNL1       -0.2736
     10 C         142.7150  140.4964  160.0318 C.3     1  UNL1        0.0941
     11 C         142.6405  140.5099  161.5299 C.3     1  UNL1        0.0259
     12 C         142.4266  139.2297  162.2818 C.3     1  UNL1        0.0257
     13 C         142.2872  137.9360  161.5356 C.3     1  UNL1        0.0259
     14 C         142.3618  137.9224  160.0376 C.3     1  UNL1        0.0941
     15 C         139.8510  137.6463  157.1290 C.3     1  UNL1        0.1321
     16 N         141.2242  137.1862  156.7387 N.ar    1  UNL1       -0.3046
     17 C         141.5519  135.9361  155.9772 C.ar    1  UNL1        0.0981
     18 C         143.0411  135.8726  155.8092 C.ar    1  UNL1        0.1193
     19 N         143.6338  137.0835  156.4669 N.ar    1  UNL1       -0.2210
     20 C         142.5109  137.8953  157.0414 C.ar    1  UNL1        0.1986
     21 C         142.1282  139.2842  168.2742 C.2     1  UNL1        0.3078
     22 O         143.1937  138.6071  169.0843 O.2     1  UNL1       -0.2516
     23 N         140.9882  139.9748  168.9620 N.am    1  UNL1       -0.1708
     24 H         140.2889  140.4192  168.4302 H       1  UNL1        0.2545
     25 C         140.9135  139.9885  170.4601 C.2     1  UNL1        0.3751
     26 N         139.6620  139.5370  171.1528 N.pl3   1  UNL1       -0.1313
     27 N         142.0904  140.4536  171.2655 N.pl3   1  UNL1       -0.2906
     28 H         138.8896  139.2318  170.6242 H       1  UNL1        0.3060
     29 H         142.9118  140.7499  170.8109 H       1  UNL1        0.2545
     30 H         142.0414  140.4625  172.2487 H       1  UNL1        0.2545
     31 C         139.7825  139.6046  163.6486 C.3     1  UNL1        0.4183
     32 F         138.5351  139.7783  162.8340 F       1  UNL1       -0.1659
     33 F         139.5673  138.1202  163.6615 F       1  UNL1       -0.1659
     34 F         139.9977  141.0890  163.6358 F       1  UNL1       -0.1659
@<TRIPOS>BOND
     1    15    16    1
     2    16    17   ar
     3    17    18   ar
     4    18    19   ar
     5    19    20   ar
     6    20     7    1
     7     7     8    2
     8     7     9   am
     9     9    10    1
    10    10    11    1
    11    11    12    1
    12    12     1    1
    13     1     2   ar
    14     2     3   ar
    15     3     4   ar
    16     4    21    1
    17    21    22    2
    18    21    23   am
    19    23    25    1
    20    25    26    2
    21    25    27    1
    22     4     5   ar
    23     5     6   ar
    24     6    31    1
    25    31    32    1
    26    31    33    1
    27    31    34    1
    28    12    13    1
    29    13    14    1
    30    20    16   ar
    31    14     9    1
    32     6     1   ar
    33    23    24    1
    34    26    28    1
    35    27    29    1
    36    27    30    1
@<TRIPOS>MOLECULE
*****
 34 36 0 0 0
SMALL
GASTEIGER

@<TRIPOS>ATOM
      1 C         140.1768  141.6207  164.3045 C.ar    1  UNL1       -0.0185
      2 C         140.7254  140.2633  164.6307 C.ar    1  UNL1       -0.0041
      3 C         140.9465  139.8675  166.0606 C.ar    1  UNL1        0.0057
      4 C         140.6189  140.8291  167.1642 C.ar    1  UNL1        0.0696
      5 C         140.0702  142.1866  166.8379 C.ar    1  UNL1        0.0095
      6 C         139.8491  142.5823  165.4081 C.ar    1  UNL1        0.0677
      7 C         139.2923  143.2037  158.5850 C.2     1  UNL1        0.2834
      8 O         138.0337  142.7939  157.8794 O.2     1  UNL1       -0.2666
      9 N         139.5134  142.8079  160.0149 N.am    1  UNL1       -0.2736
     10 C         138.4759  142.0023  160.7391 C.3     1  UNL1        0.0941
     11 C         138.6970  141.6066  162.1689 C.3     1  UNL1        0.0259
     12 C         139.9557  142.0165  162.8746 C.3     1  UNL1        0.0257
     13 C         140.9932  142.8221  162.1503 C.3     1  UNL1        0.0259
     14 C         140.7721  143.2178  160.7205 C.3     1  UNL1        0.0941
     15 C         141.7599  142.0072  156.8161 C.3     1  UNL1        0.1321
     16 N         141.4641  143.4594  157.0477 N.ar    1  UNL1       -0.3046
     17 C         142.2505  144.6165  156.5069 C.ar    1  UNL1        0.0981
     18 C         141.6023  145.8817  156.9858 C.ar    1  UNL1        0.1193
     19 N         140.4153  145.5064  157.8225 N.ar    1  UNL1       -0.2210
     20 C         140.3298  144.0093  157.8608 C.ar    1  UNL1        0.1986
     21 C         140.8400  140.4334  168.5940 C.2     1  UNL1        0.3078
     22 O         139.7581  139.7219  169.3512 O.2     1  UNL1       -0.2516
     23 N         142.1429  140.7492  169.2667 N.am    1  UNL1       -0.1708
     24 H         142.8530  141.2161  168.7698 H       1  UNL1        0.2545
     25 C         142.3641  140.3534  170.6966 C.2     1  UNL1        0.3751
     26 N         141.3515  140.7190  171.7412 N.pl3   1  UNL1       -0.1313
     27 N         143.5977  139.5922  171.0820 N.pl3   1  UNL1       -0.2906
     28 H         140.5418  141.2187  171.4882 H       1  UNL1        0.3060
     29 H         144.2623  139.3522  170.3964 H       1  UNL1        0.2545
     30 H         143.7428  139.3324  172.0204 H       1  UNL1        0.2545
     31 C         139.3004  143.9397  165.0818 C.3     1  UNL1        0.4183
     32 F         138.7517  145.2971  164.7555 F       1  UNL1       -0.1659
     33 F         137.9064  143.3882  165.1319 F       1  UNL1       -0.1659
     34 F         140.6945  144.4912  165.0316 F       1  UNL1       -0.1659
@<TRIPOS>BOND
     1    15    16    1
     2    16    17   ar
     3    17    18   ar
     4    18    19   ar
     5    19    20   ar
     6    20     7    1
     7     7     8    2
     8     7     9   am
     9     9    10    1
    10    10    11    1
    11    11    12    1
    12    12     1    1
    13     1     2   ar
    14     2     3   ar
    15     3     4   ar
    16     4    21    1
    17    21    22    2
    18    21    23   am
    19    23    25    1
    20    25    26    2
    21    25    27    1
    22     4     5   ar
    23     5     6   ar
    24     6    31    1
    25    31    32    1
    26    31    33    1
    27    31    34    1
    28    12    13    1
    29    13    14    1
    30    20    16   ar
    31    14     9    1
    32     6     1   ar
    33    23    24    1
    34    26    28    1
    35    27    29    1
    36    27    30    1
