@<TRIPOS>MOLECULE
*****
 22 24 0 0 0
SMALL
GASTEIGER

@<TRIPOS>ATOM
      1 O         144.0737  137.9559  167.0248 O.2     1  UNL1       -0.2699
      2 C         142.9801  138.6993  166.3166 C.2     1  UNL1        0.2499
      3 N         142.2254  139.7818  167.0297 N.am    1  UNL1       -0.2763
      4 C         142.6413  138.3601  164.8953 C.ar    1  UNL1        0.0650
      5 C         141.4377  137.5178  164.5917 C.ar    1  UNL1        0.0054
      6 C         141.0989  137.1786  163.1704 C.ar    1  UNL1        0.0011
      7 C         141.9636  137.6817  162.0526 C.ar    1  UNL1        0.0123
      8 C         143.1671  138.5239  162.3563 C.ar    1  UNL1        0.0683
      9 CL        144.0319  139.0270  161.2386 Cl      1  UNL1       -0.0814
     10 C         143.5060  138.8631  163.7776 C.ar    1  UNL1        0.0725
     11 CL        144.7095  139.7054  164.0812 Cl      1  UNL1       -0.0812
     12 C         142.5642  140.1210  168.4510 C.3     1  UNL1        0.0927
     13 C         142.4052  139.2147  169.6357 C.3     1  UNL1        0.0383
     14 C         142.8642  139.9596  170.8541 C.3     1  UNL1        0.0704
     15 N         143.3069  141.3262  170.4224 N.3     1  UNL1       -0.2960
     16 C         143.1215  141.4259  168.9372 C.3     1  UNL1        0.0887
     17 H         144.2899  141.4623  170.6584 H       1  UNL1        0.1233
     18 C         141.1317  140.5251  166.3215 C.3     1  UNL1        0.0937
     19 C         139.7533  140.5725  166.9112 C.3     1  UNL1        0.0215
     20 C         138.8064  139.4290  166.6972 C.3     1  UNL1        0.0017
     21 C         138.3126  138.2919  165.8528 C.3     1  UNL1        0.0001
     22 C         137.6600  138.5857  167.1710 C.3     1  UNL1        0.0001
@<TRIPOS>BOND
     1     1     2    2
     2     2     4    1
     3     4     5   ar
     4     5     6   ar
     5     6     7   ar
     6     7     8   ar
     7     8     9    1
     8     8    10   ar
     9    10    11    1
    10     2     3   am
    11     3    18    1
    12    18    19    1
    13    19    20    1
    14    20    21    1
    15    21    22    1
    16    12     3    1
    17    12    13    1
    18    13    14    1
    19    14    15    1
    20    15    16    1
    21    10     4   ar
    22    22    20    1
    23    16    12    1
    24    15    17    1
@<TRIPOS>MOLECULE
*****
 22 24 0 0 0
SMALL
GASTEIGER

@<TRIPOS>ATOM
      1 O         137.9593  138.6484  167.2748 O.2     1  UNL1       -0.2699
      2 C         138.7425  139.6306  166.4551 C.2     1  UNL1        0.2499
      3 N         139.8616  140.4076  167.0828 N.am    1  UNL1       -0.2763
      4 C         138.4067  139.8358  165.0076 C.ar    1  UNL1        0.0650
      5 C         137.6951  141.0825  164.5723 C.ar    1  UNL1        0.0054
      6 C         137.3592  141.2877  163.1248 C.ar    1  UNL1        0.0011
      7 C         137.7350  140.2463  162.1128 C.ar    1  UNL1        0.0123
      8 C         138.4465  138.9997  162.5482 C.ar    1  UNL1        0.0683
      9 CL        138.8223  137.9582  161.5361 Cl      1  UNL1       -0.0814
     10 C         138.7824  138.7945  163.9956 C.ar    1  UNL1        0.0725
     11 CL        139.4940  137.5478  164.4310 Cl      1  UNL1       -0.0812
     12 C         140.1975  140.2023  168.5302 C.3     1  UNL1        0.0927
     13 C         139.3057  140.5148  169.6952 C.3     1  UNL1        0.0383
     14 C         140.0412  140.1542  170.9518 C.3     1  UNL1        0.0704
     15 N         141.3875  139.6189  170.5635 N.3     1  UNL1       -0.2960
     16 C         141.4841  139.6486  169.0669 C.3     1  UNL1        0.0887
     17 H         141.4885  138.6606  170.8979 H       1  UNL1        0.1233
     18 C         140.6449  141.3897  166.2631 C.3     1  UNL1        0.0937
     19 C         140.5681  142.8553  166.5732 C.3     1  UNL1        0.0215
     20 C         139.8293  143.7793  165.6511 C.3     1  UNL1        0.0017
     21 C         139.7052  144.4613  164.3209 C.3     1  UNL1        0.0001
     22 C         138.6739  144.6978  165.3841 C.3     1  UNL1        0.0001
@<TRIPOS>BOND
     1     1     2    2
     2     2     4    1
     3     4     5   ar
     4     5     6   ar
     5     6     7   ar
     6     7     8   ar
     7     8     9    1
     8     8    10   ar
     9    10    11    1
    10     2     3   am
    11     3    18    1
    12    18    19    1
    13    19    20    1
    14    20    21    1
    15    21    22    1
    16    12     3    1
    17    12    13    1
    18    13    14    1
    19    14    15    1
    20    15    16    1
    21    10     4   ar
    22    22    20    1
    23    16    12    1
    24    15    17    1
@<TRIPOS>MOLECULE
*****
 22 24 0 0 0
SMALL
GASTEIGER

@<TRIPOS>ATOM
      1 O         142.6441  139.5683  167.9938 O.2     1  UNL1       -0.2699
      2 C         141.8587  139.9706  166.7808 C.2     1  UNL1        0.2499
      3 N         140.6813  140.8893  166.9204 N.am    1  UNL1       -0.2763
      4 C         142.2508  139.4541  165.4282 C.ar    1  UNL1        0.0650
      5 C         141.6310  138.1954  164.8974 C.ar    1  UNL1        0.0054
      6 C         142.0230  137.6790  163.5448 C.ar    1  UNL1        0.0011
      7 C         143.0349  138.4212  162.7230 C.ar    1  UNL1        0.0123
      8 C         143.6547  139.6798  163.2538 C.ar    1  UNL1        0.0683
      9 CL        144.6666  140.4220  162.4320 Cl      1  UNL1       -0.0814
     10 C         143.2626  140.1962  164.6064 C.ar    1  UNL1        0.0725
     11 CL        143.8824  141.4549  165.1372 Cl      1  UNL1       -0.0812
     12 C         140.2892  141.4058  168.2730 C.3     1  UNL1        0.0927
     13 C         140.5782  142.7756  168.8115 C.3     1  UNL1        0.0383
     14 C         140.0069  142.8596  170.1959 C.3     1  UNL1        0.0704
     15 N         139.3648  141.5416  170.5131 N.3     1  UNL1       -0.2960
     16 C         139.5393  140.6431  169.3246 C.3     1  UNL1        0.0887
     17 H         138.3716  141.6769  170.7018 H       1  UNL1        0.1233
     18 C         139.8959  141.2916  165.7074 C.3     1  UNL1        0.0937
     19 C         138.5611  140.6635  165.4359 C.3     1  UNL1        0.0215
     20 C         138.2387  139.3127  166.0026 C.3     1  UNL1        0.0017
     21 C         137.6113  138.4687  167.0722 C.3     1  UNL1        0.0001
     22 C         138.3078  137.8168  165.9147 C.3     1  UNL1        0.0001
@<TRIPOS>BOND
     1     1     2    2
     2     2     4    1
     3     4     5   ar
     4     5     6   ar
     5     6     7   ar
     6     7     8   ar
     7     8     9    1
     8     8    10   ar
     9    10    11    1
    10     2     3   am
    11     3    18    1
    12    18    19    1
    13    19    20    1
    14    20    21    1
    15    21    22    1
    16    12     3    1
    17    12    13    1
    18    13    14    1
    19    14    15    1
    20    15    16    1
    21    10     4   ar
    22    22    20    1
    23    16    12    1
    24    15    17    1
@<TRIPOS>MOLECULE
*****
 22 24 0 0 0
SMALL
GASTEIGER

@<TRIPOS>ATOM
      1 O         139.4231  140.0423  168.1322 O.2     1  UNL1       -0.2699
      2 C         139.9733  140.5795  166.8442 C.2     1  UNL1        0.2499
      3 N         140.9004  141.7585  166.8585 N.am    1  UNL1       -0.2763
      4 C         139.5962  139.9375  165.5420 C.ar    1  UNL1        0.0650
      5 C         138.3345  140.3468  164.8416 C.ar    1  UNL1        0.0054
      6 C         137.9574  139.7049  163.5394 C.ar    1  UNL1        0.0011
      7 C         138.8422  138.6536  162.9376 C.ar    1  UNL1        0.0123
      8 C         140.1039  138.2444  163.6380 C.ar    1  UNL1        0.0683
      9 CL        140.9887  137.1931  163.0361 Cl      1  UNL1       -0.0814
     10 C         140.4809  138.8863  164.9402 C.ar    1  UNL1        0.0725
     11 CL        141.7427  138.4770  165.6406 Cl      1  UNL1       -0.0812
     12 C         141.2774  142.4005  168.1607 C.3     1  UNL1        0.0927
     13 C         142.5823  142.2328  168.8812 C.3     1  UNL1        0.0383
     14 C         142.5271  143.0515  170.1368 C.3     1  UNL1        0.0704
     15 N         141.1881  143.7252  170.1924 N.3     1  UNL1       -0.2960
     16 C         140.4157  143.3228  168.9711 C.3     1  UNL1        0.0887
     17 H         141.3103  144.7378  170.2066 H       1  UNL1        0.1233
     18 C         141.4505  142.2957  165.5705 C.3     1  UNL1        0.0937
     19 C         141.0371  143.6540  165.0869 C.3     1  UNL1        0.0215
     20 C         139.5931  144.0575  165.1285 C.3     1  UNL1        0.0017
     21 C         138.1796  143.8760  164.6605 C.3     1  UNL1        0.0001
     22 C         138.5053  144.9378  165.6687 C.3     1  UNL1        0.0001
@<TRIPOS>BOND
     1     1     2    2
     2     2     4    1
     3     4     5   ar
     4     5     6   ar
     5     6     7   ar
     6     7     8   ar
     7     8     9    1
     8     8    10   ar
     9    10    11    1
    10     2     3   am
    11     3    18    1
    12    18    19    1
    13    19    20    1
    14    20    21    1
    15    21    22    1
    16    12     3    1
    17    12    13    1
    18    13    14    1
    19    14    15    1
    20    15    16    1
    21    10     4   ar
    22    22    20    1
    23    16    12    1
    24    15    17    1
@<TRIPOS>MOLECULE
*****
 22 24 0 0 0
SMALL
GASTEIGER

@<TRIPOS>ATOM
      1 O         143.6295  138.1557  167.5878 O.2     1  UNL1       -0.2699
      2 C         143.0330  139.2216  166.7171 C.2     1  UNL1        0.2499
      3 N         142.1916  140.3037  167.3263 N.am    1  UNL1       -0.2763
      4 C         143.2779  139.2054  165.2373 C.ar    1  UNL1        0.0650
      5 C         144.4168  139.9904  164.6570 C.ar    1  UNL1        0.0054
      6 C         144.6617  139.9742  163.1772 C.ar    1  UNL1        0.0011
      7 C         143.7676  139.1730  162.2778 C.ar    1  UNL1        0.0123
      8 C         142.6288  138.3881  162.8581 C.ar    1  UNL1        0.0683
      9 CL        141.7348  137.5869  161.9587 Cl      1  UNL1       -0.0814
     10 C         142.3839  138.4043  164.3379 C.ar    1  UNL1        0.0725
     11 CL        141.2450  137.6193  164.9183 Cl      1  UNL1       -0.0812
     12 C         141.9467  140.3200  168.8061 C.3     1  UNL1        0.0927
     13 C         140.6647  139.9509  169.4917 C.3     1  UNL1        0.0383
     14 C         140.8665  140.1109  170.9694 C.3     1  UNL1        0.0704
     15 N         142.2733  140.5789  171.1971 N.3     1  UNL1       -0.2960
     16 C         142.9409  140.7081  169.8601 C.3     1  UNL1        0.0887
     17 H         142.7751  139.9008  171.7705 H       1  UNL1        0.1233
     18 C         141.5951  141.3697  166.4556 C.3     1  UNL1        0.0937
     19 C         140.1109  141.5863  166.4455 C.3     1  UNL1        0.0215
     20 C         139.1891  140.4477  166.1232 C.3     1  UNL1        0.0017
     21 C         138.3323  139.7088  165.1385 C.3     1  UNL1        0.0001
     22 C         138.4492  139.2146  166.5499 C.3     1  UNL1        0.0001
@<TRIPOS>BOND
     1     1     2    2
     2     2     4    1
     3     4     5   ar
     4     5     6   ar
     5     6     7   ar
     6     7     8   ar
     7     8     9    1
     8     8    10   ar
     9    10    11    1
    10     2     3   am
    11     3    18    1
    12    18    19    1
    13    19    20    1
    14    20    21    1
    15    21    22    1
    16    12     3    1
    17    12    13    1
    18    13    14    1
    19    14    15    1
    20    15    16    1
    21    10     4   ar
    22    22    20    1
    23    16    12    1
    24    15    17    1
@<TRIPOS>MOLECULE
*****
 22 24 0 0 0
SMALL
GASTEIGER

@<TRIPOS>ATOM
      1 O         143.7035  138.4109  167.4133 O.2     1  UNL1       -0.2699
      2 C         142.7997  139.1858  166.5006 C.2     1  UNL1        0.2499
      3 N         142.2214  140.4943  166.9515 N.am    1  UNL1       -0.2763
      4 C         142.4743  138.6520  165.1371 C.ar    1  UNL1        0.0650
      5 C         141.2021  137.8890  164.9143 C.ar    1  UNL1        0.0054
      6 C         140.8767  137.3553  163.5508 C.ar    1  UNL1        0.0011
      7 C         141.8234  137.5845  162.4101 C.ar    1  UNL1        0.0123
      8 C         143.0955  138.3475  162.6329 C.ar    1  UNL1        0.0683
      9 CL        144.0422  138.5767  161.4921 Cl      1  UNL1       -0.0814
     10 C         143.4209  138.8812  163.9964 C.ar    1  UNL1        0.0725
     11 CL        144.6931  139.6442  164.2191 Cl      1  UNL1       -0.0812
     12 C         142.5469  141.0280  168.3150 C.3     1  UNL1        0.0927
     13 C         143.3355  142.2692  168.6109 C.3     1  UNL1        0.0383
     14 C         143.4169  142.4226  170.1008 C.3     1  UNL1        0.0704
     15 N         142.6785  141.2762  170.7258 N.3     1  UNL1       -0.2960
     16 C         142.1408  140.4143  169.6221 C.3     1  UNL1        0.0887
     17 H         141.9094  141.6291  171.2953 H       1  UNL1        0.1233
     18 C         141.3176  141.2691  166.0389 C.3     1  UNL1        0.0937
     19 C         141.6909  142.6592  165.6167 C.3     1  UNL1        0.0215
     20 C         143.0433  142.9256  165.0251 C.3     1  UNL1        0.0017
     21 C         144.5019  143.2275  165.2018 C.3     1  UNL1        0.0001
     22 C         143.9271  143.0851  163.8237 C.3     1  UNL1        0.0001
@<TRIPOS>BOND
     1     1     2    2
     2     2     4    1
     3     4     5   ar
     4     5     6   ar
     5     6     7   ar
     6     7     8   ar
     7     8     9    1
     8     8    10   ar
     9    10    11    1
    10     2     3   am
    11     3    18    1
    12    18    19    1
    13    19    20    1
    14    20    21    1
    15    21    22    1
    16    12     3    1
    17    12    13    1
    18    13    14    1
    19    14    15    1
    20    15    16    1
    21    10     4   ar
    22    22    20    1
    23    16    12    1
    24    15    17    1
@<TRIPOS>MOLECULE
*****
 22 24 0 0 0
SMALL
GASTEIGER

@<TRIPOS>ATOM
      1 O         138.1828  139.0497  167.9050 O.2     1  UNL1       -0.2699
      2 C         139.1945  139.4430  166.8697 C.2     1  UNL1        0.2499
      3 N         140.4647  140.1252  167.2833 N.am    1  UNL1       -0.2763
      4 C         138.9359  139.1540  165.4206 C.ar    1  UNL1        0.0650
      5 C         139.1960  137.7826  164.8713 C.ar    1  UNL1        0.0054
      6 C         138.9374  137.4936  163.4223 C.ar    1  UNL1        0.0011
      7 C         138.4188  138.5760  162.5226 C.ar    1  UNL1        0.0123
      8 C         138.1587  139.9474  163.0719 C.ar    1  UNL1        0.0683
      9 CL        137.6400  141.0298  162.1722 Cl      1  UNL1       -0.0814
     10 C         138.4173  140.2363  164.5209 C.ar    1  UNL1        0.0725
     11 CL        138.1572  141.6078  165.0702 Cl      1  UNL1       -0.0812
     12 C         140.7233  140.4141  168.7323 C.3     1  UNL1        0.0927
     13 C         140.1502  141.5549  169.5198 C.3     1  UNL1        0.0383
     14 C         140.6731  141.4589  170.9225 C.3     1  UNL1        0.0704
     15 N         141.5693  140.2588  171.0019 N.3     1  UNL1       -0.2960
     16 C         141.6004  139.6131  169.6483 C.3     1  UNL1        0.0887
     17 H         141.2061  139.6005  171.6912 H       1  UNL1        0.1233
     18 C         141.4764  140.5184  166.2480 C.3     1  UNL1        0.0937
     19 C         141.8193  141.9646  166.0457 C.3     1  UNL1        0.0215
     20 C         143.1661  142.3479  165.5080 C.3     1  UNL1        0.0017
     21 C         144.3779  142.0212  164.6865 C.3     1  UNL1        0.0001
     22 C         144.2871  143.3385  165.3982 C.3     1  UNL1        0.0001
@<TRIPOS>BOND
     1     1     2    2
     2     2     4    1
     3     4     5   ar
     4     5     6   ar
     5     6     7   ar
     6     7     8   ar
     7     8     9    1
     8     8    10   ar
     9    10    11    1
    10     2     3   am
    11     3    18    1
    12    18    19    1
    13    19    20    1
    14    20    21    1
    15    21    22    1
    16    12     3    1
    17    12    13    1
    18    13    14    1
    19    14    15    1
    20    15    16    1
    21    10     4   ar
    22    22    20    1
    23    16    12    1
    24    15    17    1
@<TRIPOS>MOLECULE
*****
 22 24 0 0 0
SMALL
GASTEIGER

@<TRIPOS>ATOM
      1 O         143.2819  139.7713  166.1018 O.2     1  UNL1       -0.2699
      2 C         141.9119  139.8084  166.7116 C.2     1  UNL1        0.2499
      3 N         140.7485  139.2085  165.9792 N.am    1  UNL1       -0.2763
      4 C         141.7055  140.4455  168.0538 C.ar    1  UNL1        0.0650
      5 C         142.0292  139.6824  169.3040 C.ar    1  UNL1        0.0054
      6 C         141.8227  140.3195  170.6462 C.ar    1  UNL1        0.0011
      7 C         141.2925  141.7197  170.7382 C.ar    1  UNL1        0.0123
      8 C         140.9689  142.4827  169.4880 C.ar    1  UNL1        0.0683
      9 CL        140.4387  143.8829  169.5800 Cl      1  UNL1       -0.0814
     10 C         141.1753  141.8456  168.1458 C.ar    1  UNL1        0.0725
     11 CL        140.8516  142.6088  166.8956 Cl      1  UNL1       -0.0812
     12 C         140.9550  138.5714  164.6370 C.3     1  UNL1        0.0927
     13 C         141.1120  139.2948  163.3324 C.3     1  UNL1        0.0383
     14 C         141.2948  138.2695  162.2529 C.3     1  UNL1        0.0704
     15 N         141.2506  136.9124  162.8903 N.3     1  UNL1       -0.2960
     16 C         141.0406  137.0990  164.3637 C.3     1  UNL1        0.0887
     17 H         142.1306  136.4237  162.7252 H       1  UNL1        0.1233
     18 C         139.3785  139.2455  166.5891 C.3     1  UNL1        0.0937
     19 C         138.1706  139.3900  165.7116 C.3     1  UNL1        0.0215
     20 C         138.0387  140.5793  164.8071 C.3     1  UNL1        0.0017
     21 C         137.7887  141.1533  163.4440 C.3     1  UNL1        0.0001
     22 C         138.0603  142.0653  164.6035 C.3     1  UNL1        0.0001
@<TRIPOS>BOND
     1     1     2    2
     2     2     4    1
     3     4     5   ar
     4     5     6   ar
     5     6     7   ar
     6     7     8   ar
     7     8     9    1
     8     8    10   ar
     9    10    11    1
    10     2     3   am
    11     3    18    1
    12    18    19    1
    13    19    20    1
    14    20    21    1
    15    21    22    1
    16    12     3    1
    17    12    13    1
    18    13    14    1
    19    14    15    1
    20    15    16    1
    21    10     4   ar
    22    22    20    1
    23    16    12    1
    24    15    17    1
@<TRIPOS>MOLECULE
*****
 22 24 0 0 0
SMALL
GASTEIGER

@<TRIPOS>ATOM
      1 O         143.6168  142.4562  168.6399 O.2     1  UNL1       -0.2699
      2 C         142.8151  142.3348  167.3778 C.2     1  UNL1        0.2499
      3 N         141.3172  142.3919  167.4324 N.am    1  UNL1       -0.2763
      4 C         143.5114  142.1562  166.0613 C.ar    1  UNL1        0.0650
      5 C         144.0986  143.3430  165.3564 C.ar    1  UNL1        0.0054
      6 C         144.7949  143.1645  164.0398 C.ar    1  UNL1        0.0011
      7 C         144.9040  141.7991  163.4282 C.ar    1  UNL1        0.0123
      8 C         144.3169  140.6124  164.1331 C.ar    1  UNL1        0.0683
      9 CL        144.4260  139.2471  163.5215 Cl      1  UNL1       -0.0814
     10 C         143.6206  140.7910  165.4497 C.ar    1  UNL1        0.0725
     11 CL        143.0334  139.6042  166.1546 Cl      1  UNL1       -0.0812
     12 C         140.6209  142.5705  168.7489 C.3     1  UNL1        0.0927
     13 C         139.9458  141.4916  169.5427 C.3     1  UNL1        0.0383
     14 C         139.3851  142.1136  170.7872 C.3     1  UNL1        0.0704
     15 N         139.7137  143.5769  170.7625 N.3     1  UNL1       -0.2960
     16 C         140.4775  143.8593  169.5028 C.3     1  UNL1        0.0887
     17 H         140.2831  143.8176  171.5739 H       1  UNL1        0.1233
     18 C         140.5155  142.2705  166.1703 C.3     1  UNL1        0.0937
     19 C         140.0158  143.5036  165.4777 C.3     1  UNL1        0.0215
     20 C         140.7197  144.0149  164.2559 C.3     1  UNL1        0.0017
     21 C         141.3855  145.1356  163.5138 C.3     1  UNL1        0.0001
     22 C         141.2734  143.7799  162.8818 C.3     1  UNL1        0.0001
@<TRIPOS>BOND
     1     1     2    2
     2     2     4    1
     3     4     5   ar
     4     5     6   ar
     5     6     7   ar
     6     7     8   ar
     7     8     9    1
     8     8    10   ar
     9    10    11    1
    10     2     3   am
    11     3    18    1
    12    18    19    1
    13    19    20    1
    14    20    21    1
    15    21    22    1
    16    12     3    1
    17    12    13    1
    18    13    14    1
    19    14    15    1
    20    15    16    1
    21    10     4   ar
    22    22    20    1
    23    16    12    1
    24    15    17    1
