@<TRIPOS>MOLECULE
*****
 37 40 0 0 0
SMALL
GASTEIGER

@<TRIPOS>ATOM
      1 C         139.0899  139.6215  167.0178 C.ar    1  UNL1        0.1345
      2 C         139.8812  140.7336  166.3957 C.ar    1  UNL1        0.0489
      3 C         140.4661  141.8119  167.2590 C.ar    1  UNL1        0.0534
      4 C         140.2597  141.7781  168.7443 C.ar    1  UNL1        0.0854
      5 C         139.4684  140.6659  169.3664 C.ar    1  UNL1        0.1060
      6 N         138.8835  139.5877  168.5032 N.ar    1  UNL1       -0.2288
      7 C         140.8446  142.8564  169.6075 C.2     1  UNL1        0.2455
      8 N         139.9422  143.7509  170.4048 N.am    1  UNL1       -0.3252
      9 O         142.3318  143.0401  169.6735 O.2     1  UNL1       -0.2703
     10 H         138.9661  143.6303  170.3615 H       1  UNL1        0.1453
     11 H         140.3261  144.4586  170.9713 H       1  UNL1        0.1453
     12 N         138.5050  138.5432  166.1546 N.pl3   1  UNL1       -0.2832
     13 H         137.7056  138.0527  166.4537 H       1  UNL1        0.1550
     14 C         138.4700  138.7689  160.9634 C.3     1  UNL1        0.0737
     15 C         139.1206  138.3252  162.2400 C.ar    1  UNL1        0.1410
     16 N         140.4044  137.5506  162.1977 N.ar    1  UNL1       -0.2291
     17 C         141.0551  137.1069  163.4743 C.ar    1  UNL1        0.1031
     18 C         140.4220  137.4377  164.7932 C.ar    1  UNL1        0.0551
     19 C         139.1382  138.2123  164.8356 C.ar    1  UNL1        0.1361
     20 N         138.4875  138.6560  163.5590 N.ar    1  UNL1       -0.2159
     21 N         141.2573  142.9241  166.6369 N.pl3   1  UNL1       -0.3315
     22 H         141.8700  143.4612  167.1895 H       1  UNL1        0.1468
     23 C         141.1151  143.2178  165.1727 C.3     1  UNL1        0.1054
     24 C         142.0955  142.6429  164.1938 C.3     1  UNL1        0.0438
     25 C         141.9533  142.9367  162.7297 C.3     1  UNL1        0.0941
     26 N         140.8307  143.8053  162.2446 N.pl3   1  UNL1       -0.2903
     27 C         139.8504  144.3802  163.2236 C.3     1  UNL1        0.1290
     28 C         139.9926  144.0865  164.6877 C.3     1  UNL1        0.1983
     29 F         139.0122  144.6614  165.6667 F       1  UNL1       -0.2337
     30 C         140.6885  144.0991  160.7805 C.ar    1  UNL1        0.1318
     31 C         139.6719  143.3593  159.9625 C.ar    1  UNL1        0.0350
     32 C         139.5296  143.6530  158.4984 C.ar    1  UNL1        0.0147
     33 C         140.4040  144.6865  157.8524 C.ar    1  UNL1        0.0877
     34 C         141.4206  145.4263  158.6705 C.ar    1  UNL1        0.1105
     35 N         141.5629  145.1326  160.1345 N.ar    1  UNL1       -0.2285
     36 C         140.2618  144.9803  156.3884 C.1     1  UNL1        0.1020
     37 N         140.1195  145.2740  154.9243 N.1     1  UNL1       -0.1908
@<TRIPOS>BOND
     1    14    15    1
     2    15    16   ar
     3    16    17   ar
     4    17    18   ar
     5    18    19   ar
     6    19    12    1
     7    12     1    1
     8     1     2   ar
     9     2     3   ar
    10     3    21    1
    11    23    21    1
    12    23    24    1
    13    24    25    1
    14    25    26    1
    15    26    30    1
    16    30    31   ar
    17    31    32   ar
    18    32    33   ar
    19    33    36    1
    20    36    37    3
    21    33    34   ar
    22    34    35   ar
    23    26    27    1
    24    27    28    1
    25    28    29    1
    26     3     4   ar
    27     4     7    1
    28     7     8   am
    29     7     9    2
    30     4     5   ar
    31     5     6   ar
    32    19    20   ar
    33    20    15   ar
    34     6     1   ar
    35    28    23    1
    36    35    30   ar
    37    12    13    1
    38    21    22    1
    39     8    10    1
    40     8    11    1
@<TRIPOS>MOLECULE
*****
 37 40 0 0 0
SMALL
GASTEIGER

@<TRIPOS>ATOM
      1 C         139.5116  139.7530  167.4395 C.ar    1  UNL1        0.1345
      2 C         140.6968  140.2931  166.6955 C.ar    1  UNL1        0.0489
      3 C         141.8736  140.8351  167.4515 C.ar    1  UNL1        0.0534
      4 C         141.8652  140.8368  168.9515 C.ar    1  UNL1        0.0854
      5 C         140.6800  140.2966  169.6955 C.ar    1  UNL1        0.1060
      6 N         139.5033  139.7547  168.9396 N.ar    1  UNL1       -0.2288
      7 C         143.0420  141.3787  169.7074 C.2     1  UNL1        0.2455
      8 N         143.7227  140.5328  170.7424 N.am    1  UNL1       -0.3252
      9 O         143.5382  142.7665  169.4284 O.2     1  UNL1       -0.2703
     10 H         143.3971  139.6219  170.9256 H       1  UNL1        0.1453
     11 H         144.4951  140.8885  171.2386 H       1  UNL1        0.1453
     12 N         138.3349  139.2111  166.6836 N.pl3   1  UNL1       -0.2832
     13 H         137.5223  138.9378  167.1677 H       1  UNL1        0.1550
     14 C         137.7172  141.2943  161.9636 C.3     1  UNL1        0.0737
     15 C         138.0872  140.1272  162.8301 C.ar    1  UNL1        0.1410
     16 N         138.5184  138.8345  162.2031 N.ar    1  UNL1       -0.2291
     17 C         138.8884  137.6674  163.0697 C.ar    1  UNL1        0.1031
     18 C         138.8273  137.7929  164.5631 C.ar    1  UNL1        0.0551
     19 C         138.3961  139.0855  165.1901 C.ar    1  UNL1        0.1361
     20 N         138.0260  140.2527  164.3235 N.ar    1  UNL1       -0.2159
     21 N         143.0588  141.3752  166.7075 N.pl3   1  UNL1       -0.3315
     22 H         143.9470  141.3785  167.1323 H       1  UNL1        0.1468
     23 C         142.8908  141.9105  165.3164 C.3     1  UNL1        0.1054
     24 C         141.9936  143.0868  165.0687 C.3     1  UNL1        0.0438
     25 C         141.8255  143.6221  163.6775 C.3     1  UNL1        0.0941
     26 N         142.5547  142.9810  162.5341 N.pl3   1  UNL1       -0.2903
     27 C         143.4519  141.8047  162.7818 C.3     1  UNL1        0.1290
     28 C         143.6199  141.2695  164.1729 C.3     1  UNL1        0.1983
     29 F         144.5171  140.0931  164.4207 F       1  UNL1       -0.2337
     30 C         142.3866  143.5163  161.1429 C.ar    1  UNL1        0.1318
     31 C         141.4310  144.6429  160.8832 C.ar    1  UNL1        0.0350
     32 C         141.2629  145.1781  159.4920 C.ar    1  UNL1        0.0147
     33 C         142.0505  144.5868  158.3606 C.ar    1  UNL1        0.0877
     34 C         143.0062  143.4601  158.6205 C.ar    1  UNL1        0.1105
     35 N         143.1742  142.9249  160.0116 N.ar    1  UNL1       -0.2285
     36 C         141.8825  145.1220  156.9695 C.1     1  UNL1        0.1020
     37 N         141.7145  145.6572  155.5783 N.1     1  UNL1       -0.1908
@<TRIPOS>BOND
     1    14    15    1
     2    15    16   ar
     3    16    17   ar
     4    17    18   ar
     5    18    19   ar
     6    19    12    1
     7    12     1    1
     8     1     2   ar
     9     2     3   ar
    10     3    21    1
    11    23    21    1
    12    23    24    1
    13    24    25    1
    14    25    26    1
    15    26    30    1
    16    30    31   ar
    17    31    32   ar
    18    32    33   ar
    19    33    36    1
    20    36    37    3
    21    33    34   ar
    22    34    35   ar
    23    26    27    1
    24    27    28    1
    25    28    29    1
    26     3     4   ar
    27     4     7    1
    28     7     8   am
    29     7     9    2
    30     4     5   ar
    31     5     6   ar
    32    19    20   ar
    33    20    15   ar
    34     6     1   ar
    35    28    23    1
    36    35    30   ar
    37    12    13    1
    38    21    22    1
    39     8    10    1
    40     8    11    1
@<TRIPOS>MOLECULE
*****
 37 40 0 0 0
SMALL
GASTEIGER

@<TRIPOS>ATOM
      1 C         139.4341  139.9525  167.5750 C.ar    1  UNL1        0.1345
      2 C         140.6550  140.5516  166.9423 C.ar    1  UNL1        0.0489
      3 C         141.8657  140.8447  167.7780 C.ar    1  UNL1        0.0534
      4 C         141.8554  140.5387  169.2464 C.ar    1  UNL1        0.0854
      5 C         140.6344  139.9396  169.8791 C.ar    1  UNL1        0.1060
      6 N         139.4238  139.6465  169.0434 N.ar    1  UNL1       -0.2288
      7 C         143.0660  140.8319  170.0821 C.2     1  UNL1        0.2455
      8 N         143.5226  139.8432  171.1137 N.am    1  UNL1       -0.3252
      9 O         143.8201  142.1137  169.8863 O.2     1  UNL1       -0.2703
     10 H         143.0277  139.0019  171.2423 H       1  UNL1        0.1453
     11 H         144.3172  140.0356  171.6622 H       1  UNL1        0.1453
     12 N         138.2235  139.6593  166.7393 N.pl3   1  UNL1       -0.2832
     13 H         137.3275  139.6795  167.1467 H       1  UNL1        0.1550
     14 C         137.7890  141.0457  161.7504 C.3     1  UNL1        0.0737
     15 C         138.1608  140.0287  162.7884 C.ar    1  UNL1        0.1410
     16 N         138.6870  138.6878  162.3699 N.ar    1  UNL1       -0.2291
     17 C         139.0588  137.6708  163.4079 C.ar    1  UNL1        0.1031
     18 C         138.9043  137.9946  164.8644 C.ar    1  UNL1        0.0551
     19 C         138.3780  139.3355  165.2828 C.ar    1  UNL1        0.1361
     20 N         138.0062  140.3525  164.2448 N.ar    1  UNL1       -0.2159
     21 N         143.0867  141.4438  167.1454 N.pl3   1  UNL1       -0.3315
     22 H         143.7697  141.8770  167.7066 H       1  UNL1        0.1468
     23 C         143.2669  141.3830  165.6574 C.3     1  UNL1        0.1054
     24 C         143.0352  142.6078  164.8232 C.3     1  UNL1        0.0438
     25 C         143.2154  142.5470  163.3352 C.3     1  UNL1        0.0941
     26 N         143.6273  141.2612  162.6816 N.pl3   1  UNL1       -0.2903
     27 C         143.8590  140.0364  163.5159 C.3     1  UNL1        0.1290
     28 C         143.6788  140.0973  165.0038 C.3     1  UNL1        0.1983
     29 F         143.9105  138.8724  165.8381 F       1  UNL1       -0.2337
     30 C         143.8075  141.2003  161.1938 C.ar    1  UNL1        0.1318
     31 C         144.2877  142.4090  160.4464 C.ar    1  UNL1        0.0350
     32 C         144.4679  142.3481  158.9584 C.ar    1  UNL1        0.0147
     33 C         144.1680  141.0786  158.2180 C.ar    1  UNL1        0.0877
     34 C         143.6879  139.8699  158.9654 C.ar    1  UNL1        0.1105
     35 N         143.5076  139.9308  160.4533 N.ar    1  UNL1       -0.2285
     36 C         144.3482  141.0177  156.7301 C.1     1  UNL1        0.1020
     37 N         144.5285  140.9567  155.2422 N.1     1  UNL1       -0.1908
@<TRIPOS>BOND
     1    14    15    1
     2    15    16   ar
     3    16    17   ar
     4    17    18   ar
     5    18    19   ar
     6    19    12    1
     7    12     1    1
     8     1     2   ar
     9     2     3   ar
    10     3    21    1
    11    23    21    1
    12    23    24    1
    13    24    25    1
    14    25    26    1
    15    26    30    1
    16    30    31   ar
    17    31    32   ar
    18    32    33   ar
    19    33    36    1
    20    36    37    3
    21    33    34   ar
    22    34    35   ar
    23    26    27    1
    24    27    28    1
    25    28    29    1
    26     3     4   ar
    27     4     7    1
    28     7     8   am
    29     7     9    2
    30     4     5   ar
    31     5     6   ar
    32    19    20   ar
    33    20    15   ar
    34     6     1   ar
    35    28    23    1
    36    35    30   ar
    37    12    13    1
    38    21    22    1
    39     8    10    1
    40     8    11    1
@<TRIPOS>MOLECULE
*****
 37 40 0 0 0
SMALL
GASTEIGER

@<TRIPOS>ATOM
      1 C         140.9782  143.1078  158.5012 C.ar    1  UNL1        0.1345
      2 C         141.9615  143.0291  159.6311 C.ar    1  UNL1        0.0489
      3 C         143.4028  142.7218  159.3510 C.ar    1  UNL1        0.0534
      4 C         143.8606  142.4933  157.9410 C.ar    1  UNL1        0.0854
      5 C         142.8773  142.5720  156.8111 C.ar    1  UNL1        0.1060
      6 N         141.4361  142.8793  157.0911 N.ar    1  UNL1       -0.2288
      7 C         145.3018  142.1860  157.6610 C.2     1  UNL1        0.2455
      8 N         145.6654  141.0060  156.8092 N.am    1  UNL1       -0.3252
      9 O         146.3796  143.0587  158.2327 O.2     1  UNL1       -0.2703
     10 H         144.9580  140.4332  156.4340 H       1  UNL1        0.1453
     11 H         146.6113  140.8043  156.6254 H       1  UNL1        0.1453
     12 N         139.5370  143.4151  158.7812 N.pl3   1  UNL1       -0.2832
     13 H         139.0346  144.0104  158.1791 H       1  UNL1        0.1550
     14 C         137.6199  143.9116  163.5852 C.3     1  UNL1        0.0737
     15 C         137.9026  143.0637  162.3806 C.ar    1  UNL1        0.1410
     16 N         137.5096  141.6162  162.3734 N.ar    1  UNL1       -0.2291
     17 C         137.7923  140.7682  161.1687 C.ar    1  UNL1        0.1031
     18 C         138.4681  141.3679  159.9714 C.ar    1  UNL1        0.0551
     19 C         138.8611  142.8154  159.9786 C.ar    1  UNL1        0.1361
     20 N         138.5784  143.6633  161.1832 N.ar    1  UNL1       -0.2159
     21 N         144.3862  142.6431  160.4810 N.pl3   1  UNL1       -0.3315
     22 H         145.3520  142.6173  160.2921 H       1  UNL1        0.1468
     23 C         143.8979  142.6037  161.8988 C.3     1  UNL1        0.1054
     24 C         143.8426  143.8652  162.7083 C.3     1  UNL1        0.0438
     25 C         143.3543  143.8258  164.1261 C.3     1  UNL1        0.0941
     26 N         142.9214  142.5248  164.7343 N.pl3   1  UNL1       -0.2903
     27 C         142.9767  141.2632  163.9247 C.3     1  UNL1        0.1290
     28 C         143.4650  141.3026  162.5070 C.3     1  UNL1        0.1983
     29 F         143.5203  140.0410  161.6974 F       1  UNL1       -0.2337
     30 C         142.4331  142.4853  166.1521 C.ar    1  UNL1        0.1318
     31 C         140.9635  142.5646  166.4416 C.ar    1  UNL1        0.0350
     32 C         140.4752  142.5252  167.8594 C.ar    1  UNL1        0.0147
     33 C         141.4565  142.4064  168.9876 C.ar    1  UNL1        0.0877
     34 C         142.9262  142.3271  168.6980 C.ar    1  UNL1        0.1105
     35 N         143.4145  142.3665  167.2802 N.ar    1  UNL1       -0.2285
     36 C         140.9683  142.3669  170.4053 C.1     1  UNL1        0.1020
     37 N         140.4799  142.3275  171.8231 N.1     1  UNL1       -0.1908
@<TRIPOS>BOND
     1    14    15    1
     2    15    16   ar
     3    16    17   ar
     4    17    18   ar
     5    18    19   ar
     6    19    12    1
     7    12     1    1
     8     1     2   ar
     9     2     3   ar
    10     3    21    1
    11    23    21    1
    12    23    24    1
    13    24    25    1
    14    25    26    1
    15    26    30    1
    16    30    31   ar
    17    31    32   ar
    18    32    33   ar
    19    33    36    1
    20    36    37    3
    21    33    34   ar
    22    34    35   ar
    23    26    27    1
    24    27    28    1
    25    28    29    1
    26     3     4   ar
    27     4     7    1
    28     7     8   am
    29     7     9    2
    30     4     5   ar
    31     5     6   ar
    32    19    20   ar
    33    20    15   ar
    34     6     1   ar
    35    28    23    1
    36    35    30   ar
    37    12    13    1
    38    21    22    1
    39     8    10    1
    40     8    11    1
@<TRIPOS>MOLECULE
*****
 37 40 0 0 0
SMALL
GASTEIGER

@<TRIPOS>ATOM
      1 C         141.2622  140.3946  157.5770 C.ar    1  UNL1        0.1345
      2 C         140.1994  140.0021  158.5601 C.ar    1  UNL1        0.0489
      3 C         138.7685  140.3731  158.3057 C.ar    1  UNL1        0.0534
      4 C         138.4003  141.1367  157.0682 C.ar    1  UNL1        0.0854
      5 C         139.4631  141.5293  156.0851 C.ar    1  UNL1        0.1060
      6 N         140.8940  141.1582  156.3395 N.ar    1  UNL1       -0.2288
      7 C         136.9694  141.5077  156.8138 C.2     1  UNL1        0.2455
      8 N         136.6114  142.9231  156.4694 N.am    1  UNL1       -0.3252
      9 O         135.8964  140.4634  156.9038 O.2     1  UNL1       -0.2703
     10 H         137.3156  143.6086  156.4104 H       1  UNL1        0.1453
     11 H         135.6722  143.1667  156.3025 H       1  UNL1        0.1453
     12 N         142.6931  140.0236  157.8314 N.pl3   1  UNL1       -0.2832
     13 H         143.3595  140.1100  157.1118 H       1  UNL1        0.1550
     14 C         144.7939  140.8898  162.5044 C.3     1  UNL1        0.0737
     15 C         144.1593  139.9541  161.5187 C.ar    1  UNL1        0.1410
     16 N         143.9404  138.5158  161.8837 N.ar    1  UNL1       -0.2291
     17 C         143.3057  137.5800  160.8980 C.ar    1  UNL1        0.1031
     18 C         142.8900  138.0826  159.5472 C.ar    1  UNL1        0.0551
     19 C         143.1089  139.5209  159.1822 C.ar    1  UNL1        0.1361
     20 N         143.7435  140.4567  160.1679 N.ar    1  UNL1       -0.2159
     21 N         137.7057  139.9806  159.2887 N.pl3   1  UNL1       -0.3315
     22 H         136.8199  139.6947  158.9681 H       1  UNL1        0.1468
     23 C         137.9926  140.0236  160.7605 C.3     1  UNL1        0.1054
     24 C         138.1787  138.7472  161.5260 C.3     1  UNL1        0.0438
     25 C         138.4656  138.7902  162.9977 C.3     1  UNL1        0.0941
     26 N         138.5664  140.1098  163.7038 N.pl3   1  UNL1       -0.2903
     27 C         138.3804  141.3863  162.9383 C.3     1  UNL1        0.1290
     28 C         138.0935  141.3432  161.4666 C.3     1  UNL1        0.1983
     29 F         137.9074  142.6197  160.7011 F       1  UNL1       -0.2337
     30 C         138.8533  140.1529  165.1755 C.ar    1  UNL1        0.1318
     31 C         138.1797  139.1822  166.0996 C.ar    1  UNL1        0.0350
     32 C         138.4666  139.2252  167.5713 C.ar    1  UNL1        0.0147
     33 C         139.4271  140.2390  168.1189 C.ar    1  UNL1        0.0877
     34 C         140.1007  141.2097  167.1947 C.ar    1  UNL1        0.1105
     35 N         139.8138  141.1666  165.7230 N.ar    1  UNL1       -0.2285
     36 C         139.7140  140.2821  169.5905 C.1     1  UNL1        0.1020
     37 N         140.0009  140.3251  171.0622 N.1     1  UNL1       -0.1908
@<TRIPOS>BOND
     1    14    15    1
     2    15    16   ar
     3    16    17   ar
     4    17    18   ar
     5    18    19   ar
     6    19    12    1
     7    12     1    1
     8     1     2   ar
     9     2     3   ar
    10     3    21    1
    11    23    21    1
    12    23    24    1
    13    24    25    1
    14    25    26    1
    15    26    30    1
    16    30    31   ar
    17    31    32   ar
    18    32    33   ar
    19    33    36    1
    20    36    37    3
    21    33    34   ar
    22    34    35   ar
    23    26    27    1
    24    27    28    1
    25    28    29    1
    26     3     4   ar
    27     4     7    1
    28     7     8   am
    29     7     9    2
    30     4     5   ar
    31     5     6   ar
    32    19    20   ar
    33    20    15   ar
    34     6     1   ar
    35    28    23    1
    36    35    30   ar
    37    12    13    1
    38    21    22    1
    39     8    10    1
    40     8    11    1
@<TRIPOS>MOLECULE
*****
 37 40 0 0 0
SMALL
GASTEIGER

@<TRIPOS>ATOM
      1 C         141.3317  140.1954  158.6239 C.ar    1  UNL1        0.1345
      2 C         142.0286  141.0762  159.6181 C.ar    1  UNL1        0.0489
      3 C         142.3882  142.4851  159.2495 C.ar    1  UNL1        0.0534
      4 C         142.0508  143.0131  157.8866 C.ar    1  UNL1        0.0854
      5 C         141.3539  142.1323  156.8924 C.ar    1  UNL1        0.1060
      6 N         140.9943  140.7235  157.2610 N.ar    1  UNL1       -0.2288
      7 C         142.4103  144.4219  157.5181 C.2     1  UNL1        0.2455
      8 N         142.9571  144.7242  156.1543 N.am    1  UNL1       -0.3252
      9 O         142.2232  145.5286  158.5132 O.2     1  UNL1       -0.2703
     10 H         143.0799  143.9978  155.5011 H       1  UNL1        0.1453
     11 H         143.1931  145.6488  155.9124 H       1  UNL1        0.1453
     12 N         140.9721  138.7866  158.9925 N.pl3   1  UNL1       -0.2832
     13 H         141.1937  138.0463  158.3824 H       1  UNL1        0.1550
     14 C         141.0971  137.0171  163.8765 C.3     1  UNL1        0.0737
     15 C         140.3375  137.6208  162.7326 C.ar    1  UNL1        0.1410
     16 N         138.8808  137.9436  162.8867 N.ar    1  UNL1       -0.2291
     17 C         138.1212  138.5473  161.7428 C.ar    1  UNL1        0.1031
     18 C         138.8183  138.8283  160.4448 C.ar    1  UNL1        0.0551
     19 C         140.2750  138.5056  160.2906 C.ar    1  UNL1        0.1361
     20 N         141.0346  137.9018  161.4345 N.ar    1  UNL1       -0.2159
     21 N         143.0851  143.3659  160.2437 N.pl3   1  UNL1       -0.3315
     22 H         143.7176  144.0537  159.9337 H       1  UNL1        0.1468
     23 C         142.8183  143.1987  161.7103 C.3     1  UNL1        0.1054
     24 C         141.5851  143.7955  162.3211 C.3     1  UNL1        0.0438
     25 C         141.3183  143.6283  163.7878 C.3     1  UNL1        0.0941
     26 N         142.2848  142.8643  164.6435 N.pl3   1  UNL1       -0.2903
     27 C         143.5180  142.2675  164.0327 C.3     1  UNL1        0.1290
     28 C         143.7847  142.4347  162.5661 C.3     1  UNL1        0.1983
     29 F         145.0180  141.8380  161.9552 F       1  UNL1       -0.2337
     30 C         142.0180  142.6971  166.1101 C.ar    1  UNL1        0.1318
     31 C         140.6204  142.8299  166.6381 C.ar    1  UNL1        0.0350
     32 C         140.3536  142.6627  168.1047 C.ar    1  UNL1        0.0147
     33 C         141.4845  142.3627  169.0433 C.ar    1  UNL1        0.0877
     34 C         142.8823  142.2299  168.5152 C.ar    1  UNL1        0.1105
     35 N         143.1490  142.3971  167.0487 N.ar    1  UNL1       -0.2285
     36 C         141.2178  142.1955  170.5099 C.1     1  UNL1        0.1020
     37 N         140.9511  142.0283  171.9765 N.1     1  UNL1       -0.1908
@<TRIPOS>BOND
     1    14    15    1
     2    15    16   ar
     3    16    17   ar
     4    17    18   ar
     5    18    19   ar
     6    19    12    1
     7    12     1    1
     8     1     2   ar
     9     2     3   ar
    10     3    21    1
    11    23    21    1
    12    23    24    1
    13    24    25    1
    14    25    26    1
    15    26    30    1
    16    30    31   ar
    17    31    32   ar
    18    32    33   ar
    19    33    36    1
    20    36    37    3
    21    33    34   ar
    22    34    35   ar
    23    26    27    1
    24    27    28    1
    25    28    29    1
    26     3     4   ar
    27     4     7    1
    28     7     8   am
    29     7     9    2
    30     4     5   ar
    31     5     6   ar
    32    19    20   ar
    33    20    15   ar
    34     6     1   ar
    35    28    23    1
    36    35    30   ar
    37    12    13    1
    38    21    22    1
    39     8    10    1
    40     8    11    1
@<TRIPOS>MOLECULE
*****
 37 40 0 0 0
SMALL
GASTEIGER

@<TRIPOS>ATOM
      1 C         140.9014  138.8982  158.8065 C.ar    1  UNL1        0.1345
      2 C         140.1708  139.8363  159.7209 C.ar    1  UNL1        0.0489
      3 C         138.9829  140.6014  159.2172 C.ar    1  UNL1        0.0534
      4 C         138.5258  140.4284  157.7991 C.ar    1  UNL1        0.0854
      5 C         139.2564  139.4904  156.8846 C.ar    1  UNL1        0.1060
      6 N         140.4442  138.7253  157.3883 N.ar    1  UNL1       -0.2288
      7 C         137.3380  141.1935  157.2954 C.2     1  UNL1        0.2455
      8 N         136.1414  140.4588  156.7676 N.am    1  UNL1       -0.3252
      9 O         137.3467  142.6933  157.3195 O.2     1  UNL1       -0.2703
     10 H         136.1357  139.4745  156.7518 H       1  UNL1        0.1453
     11 H         135.3618  140.9610  156.4370 H       1  UNL1        0.1453
     12 N         142.0892  138.1331  159.3101 N.pl3   1  UNL1       -0.2832
     13 H         142.6107  137.5711  158.6925 H       1  UNL1        0.1550
     14 C         141.1202  137.1079  164.3111 C.3     1  UNL1        0.0737
     15 C         141.9980  137.7117  163.2553 C.ar    1  UNL1        0.1410
     16 N         143.2691  138.4067  163.6441 N.ar    1  UNL1       -0.2291
     17 C         144.1469  139.0106  162.5882 C.ar    1  UNL1        0.1031
     18 C         143.7536  138.9194  161.1436 C.ar    1  UNL1        0.0551
     19 C         142.4825  138.2243  160.7548 C.ar    1  UNL1        0.1361
     20 N         141.6047  137.6205  161.8107 N.ar    1  UNL1       -0.2159
     21 N         138.2523  141.5394  160.1316 N.pl3   1  UNL1       -0.3315
     22 H         137.5542  142.1333  159.7721 H       1  UNL1        0.1468
     23 C         138.5852  141.5726  161.5939 C.3     1  UNL1        0.1054
     24 C         139.3878  142.7090  162.1547 C.3     1  UNL1        0.0438
     25 C         139.7207  142.7422  163.6170 C.3     1  UNL1        0.0941
     26 N         139.2511  141.6390  164.5183 N.pl3   1  UNL1       -0.2903
     27 C         138.4486  140.5026  163.9574 C.3     1  UNL1        0.1290
     28 C         138.1156  140.4694  162.4952 C.3     1  UNL1        0.1983
     29 F         137.3131  139.3330  161.9343 F       1  UNL1       -0.2337
     30 C         139.5841  141.6722  165.9805 C.ar    1  UNL1        0.1318
     31 C         140.1621  142.9148  166.5900 C.ar    1  UNL1        0.0350
     32 C         140.4951  142.9480  168.0523 C.ar    1  UNL1        0.0147
     33 C         140.2500  141.7385  168.9049 C.ar    1  UNL1        0.0877
     34 C         139.6719  140.4958  168.2953 C.ar    1  UNL1        0.1105
     35 N         139.3389  140.4627  166.8331 N.ar    1  UNL1       -0.2285
     36 C         140.5829  141.7717  170.3671 C.1     1  UNL1        0.1020
     37 N         140.9159  141.8048  171.8293 N.1     1  UNL1       -0.1908
@<TRIPOS>BOND
     1    14    15    1
     2    15    16   ar
     3    16    17   ar
     4    17    18   ar
     5    18    19   ar
     6    19    12    1
     7    12     1    1
     8     1     2   ar
     9     2     3   ar
    10     3    21    1
    11    23    21    1
    12    23    24    1
    13    24    25    1
    14    25    26    1
    15    26    30    1
    16    30    31   ar
    17    31    32   ar
    18    32    33   ar
    19    33    36    1
    20    36    37    3
    21    33    34   ar
    22    34    35   ar
    23    26    27    1
    24    27    28    1
    25    28    29    1
    26     3     4   ar
    27     4     7    1
    28     7     8   am
    29     7     9    2
    30     4     5   ar
    31     5     6   ar
    32    19    20   ar
    33    20    15   ar
    34     6     1   ar
    35    28    23    1
    36    35    30   ar
    37    12    13    1
    38    21    22    1
    39     8    10    1
    40     8    11    1
@<TRIPOS>MOLECULE
*****
 37 40 0 0 0
SMALL
GASTEIGER

@<TRIPOS>ATOM
      1 C         141.6294  143.1983  158.7136 C.ar    1  UNL1        0.1345
      2 C         140.7233  142.4630  159.6562 C.ar    1  UNL1        0.0489
      3 C         139.3722  142.0044  159.1932 C.ar    1  UNL1        0.0534
      4 C         138.9273  142.2810  157.7877 C.ar    1  UNL1        0.0854
      5 C         139.8333  143.0163  156.8452 C.ar    1  UNL1        0.1060
      6 N         141.1844  143.4749  157.3081 N.ar    1  UNL1       -0.2288
      7 C         137.5762  141.8224  157.3248 C.2     1  UNL1        0.2455
      8 N         136.6659  142.7749  156.6078 N.am    1  UNL1       -0.3252
      9 O         137.1355  140.4113  157.5789 O.2     1  UNL1       -0.2703
     10 H         136.9551  143.7011  156.4410 H       1  UNL1        0.1453
     11 H         135.7791  142.4739  156.3040 H       1  UNL1        0.1453
     12 N         142.9804  143.6569  159.1765 N.pl3   1  UNL1       -0.2832
     13 H         143.5259  144.2407  158.6013 H       1  UNL1        0.1550
     14 C         143.8151  144.6436  164.2094 C.3     1  UNL1        0.0737
     15 C         143.9178  143.7194  163.0324 C.ar    1  UNL1        0.1410
     16 N         144.5405  142.3645  163.1947 N.ar    1  UNL1       -0.2291
     17 C         144.6432  141.4404  162.0177 C.ar    1  UNL1        0.1031
     18 C         144.1232  141.8711  160.6783 C.ar    1  UNL1        0.0551
     19 C         143.5005  143.2261  160.5160 C.ar    1  UNL1        0.1361
     20 N         143.3978  144.1502  161.6930 N.ar    1  UNL1       -0.2159
     21 N         138.4662  141.2691  160.1358 N.pl3   1  UNL1       -0.3315
     22 H         137.6778  140.7921  159.7892 H       1  UNL1        0.1468
     23 C         138.7614  141.2606  161.6065 C.3     1  UNL1        0.1054
     24 C         139.4534  140.0826  162.2257 C.3     1  UNL1        0.0438
     25 C         139.7487  140.0741  163.6964 C.3     1  UNL1        0.0941
     26 N         139.3518  141.2436  164.5478 N.pl3   1  UNL1       -0.2903
     27 C         138.6598  142.4216  163.9285 C.3     1  UNL1        0.1290
     28 C         138.3646  142.4301  162.4579 C.3     1  UNL1        0.1983
     29 F         137.6725  143.6081  161.8385 F       1  UNL1       -0.2337
     30 C         139.6470  141.2351  166.0184 C.ar    1  UNL1        0.1318
     31 C         139.3345  140.0190  166.8390 C.ar    1  UNL1        0.0350
     32 C         139.6297  140.0105  168.3097 C.ar    1  UNL1        0.0147
     33 C         140.2374  141.2181  168.9597 C.ar    1  UNL1        0.0877
     34 C         140.5499  142.4342  168.1390 C.ar    1  UNL1        0.1105
     35 N         140.2547  142.4427  166.6684 N.ar    1  UNL1       -0.2285
     36 C         140.5326  141.2096  170.4303 C.1     1  UNL1        0.1020
     37 N         140.8278  141.2011  171.9010 N.1     1  UNL1       -0.1908
@<TRIPOS>BOND
     1    14    15    1
     2    15    16   ar
     3    16    17   ar
     4    17    18   ar
     5    18    19   ar
     6    19    12    1
     7    12     1    1
     8     1     2   ar
     9     2     3   ar
    10     3    21    1
    11    23    21    1
    12    23    24    1
    13    24    25    1
    14    25    26    1
    15    26    30    1
    16    30    31   ar
    17    31    32   ar
    18    32    33   ar
    19    33    36    1
    20    36    37    3
    21    33    34   ar
    22    34    35   ar
    23    26    27    1
    24    27    28    1
    25    28    29    1
    26     3     4   ar
    27     4     7    1
    28     7     8   am
    29     7     9    2
    30     4     5   ar
    31     5     6   ar
    32    19    20   ar
    33    20    15   ar
    34     6     1   ar
    35    28    23    1
    36    35    30   ar
    37    12    13    1
    38    21    22    1
    39     8    10    1
    40     8    11    1
@<TRIPOS>MOLECULE
*****
 37 40 0 0 0
SMALL
GASTEIGER

@<TRIPOS>ATOM
      1 C         139.3701  142.1071  158.6392 C.ar    1  UNL1        0.1345
      2 C         139.6224  141.0002  159.6195 C.ar    1  UNL1        0.0489
      3 C         139.8772  139.6062  159.1275 C.ar    1  UNL1        0.0534
      4 C         139.8797  139.3193  157.6552 C.ar    1  UNL1        0.0854
      5 C         139.6274  140.4262  156.6749 C.ar    1  UNL1        0.1060
      6 N         139.3726  141.8201  157.1668 N.ar    1  UNL1       -0.2288
      7 C         140.1345  137.9254  157.1633 C.2     1  UNL1        0.2455
      8 N         139.0689  137.1913  156.4045 N.am    1  UNL1       -0.3252
      9 O         141.4549  137.2655  157.4301 O.2     1  UNL1       -0.2703
     10 H         138.2023  137.6244  156.2293 H       1  UNL1        0.1453
     11 H         139.2362  136.2764  156.0816 H       1  UNL1        0.1453
     12 N         139.1153  143.5010  159.1311 N.pl3   1  UNL1       -0.2832
     13 H         138.6789  144.1587  158.5426 H       1  UNL1        0.1550
     14 C         137.9469  144.1605  164.1511 C.3     1  UNL1        0.0737
     15 C         138.9412  144.2227  163.0297 C.ar    1  UNL1        0.1410
     16 N         140.3455  144.6770  163.2969 N.ar    1  UNL1       -0.2291
     17 C         141.3398  144.7392  162.1755 C.ar    1  UNL1        0.1031
     18 C         140.9298  144.3472  160.7869 C.ar    1  UNL1        0.0551
     19 C         139.5254  143.8930  160.5197 C.ar    1  UNL1        0.1361
     20 N         138.5311  143.8308  161.6411 N.ar    1  UNL1       -0.2159
     21 N         140.1296  138.4993  160.1078 N.pl3   1  UNL1       -0.3315
     22 H         140.2510  137.5763  159.7875 H       1  UNL1        0.1468
     23 C         140.1969  138.7987  161.5761 C.3     1  UNL1        0.1054
     24 C         141.5070  139.1665  162.2072 C.3     1  UNL1        0.0438
     25 C         141.5743  139.4659  163.6755 C.3     1  UNL1        0.0941
     26 N         140.3315  139.3975  164.5127 N.pl3   1  UNL1       -0.2903
     27 C         139.0214  139.0296  163.8815 C.3     1  UNL1        0.1290
     28 C         138.9541  138.7302  162.4132 C.3     1  UNL1        0.1983
     29 F         137.6440  138.3624  161.7821 F       1  UNL1       -0.2337
     30 C         140.3988  139.6968  165.9809 C.ar    1  UNL1        0.1318
     31 C         139.1532  139.6444  166.8149 C.ar    1  UNL1        0.0350
     32 C         139.2204  139.9438  168.2832 C.ar    1  UNL1        0.0147
     33 C         140.5334  140.2956  168.9175 C.ar    1  UNL1        0.0877
     34 C         141.7791  140.3480  168.0835 C.ar    1  UNL1        0.1105
     35 N         141.7118  140.0487  166.6152 N.ar    1  UNL1       -0.2285
     36 C         140.6006  140.5950  170.3858 C.1     1  UNL1        0.1020
     37 N         140.6680  140.8943  171.8541 N.1     1  UNL1       -0.1908
@<TRIPOS>BOND
     1    14    15    1
     2    15    16   ar
     3    16    17   ar
     4    17    18   ar
     5    18    19   ar
     6    19    12    1
     7    12     1    1
     8     1     2   ar
     9     2     3   ar
    10     3    21    1
    11    23    21    1
    12    23    24    1
    13    24    25    1
    14    25    26    1
    15    26    30    1
    16    30    31   ar
    17    31    32   ar
    18    32    33   ar
    19    33    36    1
    20    36    37    3
    21    33    34   ar
    22    34    35   ar
    23    26    27    1
    24    27    28    1
    25    28    29    1
    26     3     4   ar
    27     4     7    1
    28     7     8   am
    29     7     9    2
    30     4     5   ar
    31     5     6   ar
    32    19    20   ar
    33    20    15   ar
    34     6     1   ar
    35    28    23    1
    36    35    30   ar
    37    12    13    1
    38    21    22    1
    39     8    10    1
    40     8    11    1
