@<TRIPOS>MOLECULE
*****
 36 39 0 0 0
SMALL
GASTEIGER

@<TRIPOS>ATOM
      1 C         141.3133  144.6605  159.8429 C.3     1  UNL1        0.2722
      2 O         142.5194  146.1872  158.1210 O.2     1  UNL1       -0.2707
      3 C         141.2875  145.4616  158.5749 C.2     1  UNL1        0.2701
      4 N         140.0298  145.5371  157.7609 N.am    1  UNL1       -0.2663
      5 H         139.2213  145.0609  158.0588 H       1  UNL1        0.1564
      6 C         140.0040  146.3382  156.4930 C.ar    1  UNL1        0.1344
      7 C         139.1540  147.5707  156.4017 C.ar    1  UNL1        0.0368
      8 C         139.1282  148.3718  155.1339 C.ar    1  UNL1        0.0341
      9 C         139.9525  147.9404  153.9572 C.ar    1  UNL1        0.1593
     10 F         139.9267  148.7414  152.6893 F       1  UNL1       -0.2025
     11 C         140.8026  146.7079  154.0485 C.ar    1  UNL1        0.1298
     12 N         140.8283  145.9068  155.3165 N.ar    1  UNL1       -0.2267
     13 C         140.0554  144.4756  160.6389 C.3     1  UNL1        0.1952
     14 O         138.9726  143.5704  160.1308 O.3     1  UNL1       -0.3467
     15 C         138.2443  142.6658  161.0803 C.3     1  UNL1        0.1740
     16 C         137.9569  143.1225  162.4798 C.3     1  UNL1        0.1692
     17 O         137.3182  144.4590  162.7164 O.3     1  UNL1       -0.3794
     18 H         137.9262  145.1617  162.4380 H       1  UNL1        0.2105
     19 O         142.5969  144.0443  160.3147 O.3     1  UNL1       -0.4517
     20 C         142.8582  143.8877  161.7835 C.ar    1  UNL1        0.2312
     21 N         143.6169  144.9465  162.5273 N.ar    1  UNL1       -0.1892
     22 C         143.8782  144.7899  163.9960 C.ar    1  UNL1        0.2029
     23 N         143.3808  143.5746  164.7209 N.ar    1  UNL1       -0.2046
     24 C         142.6221  142.5158  163.9771 C.ar    1  UNL1        0.1715
     25 C         142.3608  142.6724  162.5084 C.ar    1  UNL1        0.1098
     26 C         141.5903  141.4720  162.0441 C.ar    1  UNL1        0.1283
     27 N         141.3754  140.5736  163.2259 N.ar    1  UNL1       -0.1619
     28 N         142.0131  141.2187  164.4205 N.ar    1  UNL1       -0.2103
     29 C         142.0375  140.6641  165.8140 C.ar    1  UNL1        0.1054
     30 C         142.9855  139.5554  166.1635 C.ar    1  UNL1        0.0762
     31 CL        143.9092  139.0014  165.1195 Cl      1  UNL1       -0.0806
     32 C         143.0099  139.0008  167.5570 C.ar    1  UNL1        0.0130
     33 C         142.0863  139.5548  168.6010 C.ar    1  UNL1        0.0018
     34 C         141.1383  140.6634  168.2515 C.ar    1  UNL1        0.0130
     35 C         141.1139  141.2181  166.8581 C.ar    1  UNL1        0.0762
     36 CL        140.1659  142.3267  166.5086 Cl      1  UNL1       -0.0806
@<TRIPOS>BOND
     1     2     3    2
     2     3     4   am
     3     4     6    1
     4     6     7   ar
     5     7     8   ar
     6     8     9   ar
     7     9    10    1
     8     9    11   ar
     9    11    12   ar
    10     3     1    1
    11     1    13    1
    12    13    14    1
    13    14    15    1
    14    15    16    1
    15    16    17    1
    16     1    19    1
    17    19    20    1
    18    20    21   ar
    19    21    22   ar
    20    22    23   ar
    21    23    24   ar
    22    24    25   ar
    23    25    26   ar
    24    26    27   ar
    25    27    28   ar
    26    28    29    1
    27    29    30   ar
    28    30    31    1
    29    30    32   ar
    30    32    33   ar
    31    33    34   ar
    32    34    35   ar
    33    35    36    1
    34    12     6   ar
    35    25    20   ar
    36    35    29   ar
    37    28    24   ar
    38     4     5    1
    39    17    18    1
@<TRIPOS>MOLECULE
*****
 36 39 0 0 0
SMALL
GASTEIGER

@<TRIPOS>ATOM
      1 C         137.7372  140.7480  161.5539 C.3     1  UNL1        0.2722
      2 O         138.0573  141.7101  159.1618 O.2     1  UNL1       -0.2707
      3 C         138.4683  141.6490  160.6031 C.2     1  UNL1        0.2701
      4 N         139.6102  142.4888  161.0936 N.am    1  UNL1       -0.2663
      5 H         139.8799  142.4486  162.0396 H       1  UNL1        0.1564
      6 C         140.3413  143.3897  160.1429 C.ar    1  UNL1        0.1344
      7 C         141.6791  142.9812  159.6012 C.ar    1  UNL1        0.0368
      8 C         142.4101  143.8821  158.6505 C.ar    1  UNL1        0.0341
      9 C         141.8034  145.1916  158.2415 C.ar    1  UNL1        0.1593
     10 F         142.5344  146.0925  157.2908 F       1  UNL1       -0.2025
     11 C         140.4656  145.6000  158.7832 C.ar    1  UNL1        0.1298
     12 N         139.7345  144.6991  159.7340 N.ar    1  UNL1       -0.2267
     13 C         137.5835  139.2899  161.2373 C.3     1  UNL1        0.1952
     14 O         138.7853  138.3923  161.2347 O.3     1  UNL1       -0.3467
     15 C         139.9480  138.6931  162.1334 C.3     1  UNL1        0.1740
     16 C         141.1693  137.8230  162.0963 C.3     1  UNL1        0.1692
     17 O         141.3050  136.6794  163.0574 O.3     1  UNL1       -0.3794
     18 H         141.3783  137.0236  163.9613 H       1  UNL1        0.2105
     19 O         137.1599  141.3053  162.8212 O.3     1  UNL1       -0.4517
     20 C         138.0700  141.8085  163.9022 C.ar    1  UNL1        0.2312
     21 N         138.5308  143.2359  163.8904 N.ar    1  UNL1       -0.1892
     22 C         139.4409  143.7391  164.9714 C.ar    1  UNL1        0.2029
     23 N         139.8901  142.8149  166.0641 N.ar    1  UNL1       -0.2046
     24 C         139.4292  141.3875  166.0759 C.ar    1  UNL1        0.1715
     25 C         138.5192  140.8844  164.9949 C.ar    1  UNL1        0.1098
     26 C         138.2315  139.4376  165.2674 C.ar    1  UNL1        0.1283
     27 N         138.9638  139.0466  166.5167 N.ar    1  UNL1       -0.1619
     28 N         139.7040  140.2518  167.0164 N.ar    1  UNL1       -0.2103
     29 C         140.5675  140.3108  168.2415 C.ar    1  UNL1        0.1054
     30 C         142.0600  140.3704  168.1051 C.ar    1  UNL1        0.0762
     31 CL        142.6893  140.3710  166.7434 Cl      1  UNL1       -0.0806
     32 C         142.9235  140.4295  169.3302 C.ar    1  UNL1        0.0130
     33 C         142.2944  140.4289  170.6919 C.ar    1  UNL1        0.0018
     34 C         140.8018  140.3694  170.8284 C.ar    1  UNL1        0.0130
     35 C         139.9384  140.3103  169.6032 C.ar    1  UNL1        0.0762
     36 CL        138.4458  140.2507  169.7398 Cl      1  UNL1       -0.0806
@<TRIPOS>BOND
     1     2     3    2
     2     3     4   am
     3     4     6    1
     4     6     7   ar
     5     7     8   ar
     6     8     9   ar
     7     9    10    1
     8     9    11   ar
     9    11    12   ar
    10     3     1    1
    11     1    13    1
    12    13    14    1
    13    14    15    1
    14    15    16    1
    15    16    17    1
    16     1    19    1
    17    19    20    1
    18    20    21   ar
    19    21    22   ar
    20    22    23   ar
    21    23    24   ar
    22    24    25   ar
    23    25    26   ar
    24    26    27   ar
    25    27    28   ar
    26    28    29    1
    27    29    30   ar
    28    30    31    1
    29    30    32   ar
    30    32    33   ar
    31    33    34   ar
    32    34    35   ar
    33    35    36    1
    34    12     6   ar
    35    25    20   ar
    36    35    29   ar
    37    28    24   ar
    38     4     5    1
    39    17    18    1
@<TRIPOS>MOLECULE
*****
 36 39 0 0 0
SMALL
GASTEIGER

@<TRIPOS>ATOM
      1 C         141.0697  138.1588  161.4515 C.3     1  UNL1        0.2722
      2 O         143.6110  138.6474  161.2206 O.2     1  UNL1       -0.2707
      3 C         142.1989  138.8703  160.7666 C.2     1  UNL1        0.2701
      4 N         141.9157  139.8046  159.6279 N.am    1  UNL1       -0.2663
      5 H         140.9889  139.9509  159.3299 H       1  UNL1        0.1564
      6 C         143.0448  140.5161  158.9431 C.ar    1  UNL1        0.1344
      7 C         143.4476  141.8897  159.3915 C.ar    1  UNL1        0.0368
      8 C         144.5766  142.6012  158.7066 C.ar    1  UNL1        0.0341
      9 C         145.3029  141.9391  157.5734 C.ar    1  UNL1        0.1593
     10 F         146.4319  142.6506  156.8886 F       1  UNL1       -0.2025
     11 C         144.9001  140.5655  157.1250 C.ar    1  UNL1        0.1298
     12 N         143.7710  139.8541  157.8099 N.ar    1  UNL1       -0.2267
     13 C         139.7171  138.1026  160.8057 C.3     1  UNL1        0.1952
     14 O         138.9352  139.3647  160.5914 O.3     1  UNL1       -0.3467
     15 C         137.7306  139.6534  161.4374 C.3     1  UNL1        0.1740
     16 C         137.8369  140.6014  162.5950 C.3     1  UNL1        0.1692
     17 O         136.6110  141.2944  163.1118 O.3     1  UNL1       -0.3794
     18 H         136.2733  141.9017  162.4351 H       1  UNL1        0.2105
     19 O         141.2933  137.5034  162.7821 O.3     1  UNL1       -0.4517
     20 C         140.6108  138.0388  164.0059 C.ar    1  UNL1        0.2312
     21 N         139.1928  137.6510  164.3039 N.ar    1  UNL1       -0.1892
     22 C         138.5103  138.1864  165.5277 C.ar    1  UNL1        0.2029
     23 N         139.2458  139.1094  166.4534 N.ar    1  UNL1       -0.2046
     24 C         140.6638  139.4971  166.1554 C.ar    1  UNL1        0.1715
     25 C         141.3463  138.9618  164.9316 C.ar    1  UNL1        0.1098
     26 C         142.7398  139.5161  164.8981 C.ar    1  UNL1        0.1283
     27 N         142.9185  140.3940  166.1011 N.ar    1  UNL1       -0.1619
     28 N         141.6355  140.3823  166.8782 N.ar    1  UNL1       -0.2103
     29 C         141.3706  141.1252  168.1540 C.ar    1  UNL1        0.1054
     30 C         141.7838  140.5309  169.4677 C.ar    1  UNL1        0.0762
     31 CL        142.4620  139.1934  169.5057 Cl      1  UNL1       -0.0806
     32 C         141.5189  141.2738  170.7436 C.ar    1  UNL1        0.0130
     33 C         140.8407  142.6113  170.7058 C.ar    1  UNL1        0.0018
     34 C         140.4275  143.2056  169.3920 C.ar    1  UNL1        0.0130
     35 C         140.6924  142.4626  168.1162 C.ar    1  UNL1        0.0762
     36 CL        140.2791  143.0571  166.8025 Cl      1  UNL1       -0.0806
@<TRIPOS>BOND
     1     2     3    2
     2     3     4   am
     3     4     6    1
     4     6     7   ar
     5     7     8   ar
     6     8     9   ar
     7     9    10    1
     8     9    11   ar
     9    11    12   ar
    10     3     1    1
    11     1    13    1
    12    13    14    1
    13    14    15    1
    14    15    16    1
    15    16    17    1
    16     1    19    1
    17    19    20    1
    18    20    21   ar
    19    21    22   ar
    20    22    23   ar
    21    23    24   ar
    22    24    25   ar
    23    25    26   ar
    24    26    27   ar
    25    27    28   ar
    26    28    29    1
    27    29    30   ar
    28    30    31    1
    29    30    32   ar
    30    32    33   ar
    31    33    34   ar
    32    34    35   ar
    33    35    36    1
    34    12     6   ar
    35    25    20   ar
    36    35    29   ar
    37    28    24   ar
    38     4     5    1
    39    17    18    1
@<TRIPOS>MOLECULE
*****
 36 39 0 0 0
SMALL
GASTEIGER

@<TRIPOS>ATOM
      1 C         141.7546  144.0457  158.8350 C.3     1  UNL1        0.2722
      2 O         142.4924  146.3225  157.8242 O.2     1  UNL1       -0.2707
      3 C         141.5378  145.1661  157.8615 C.2     1  UNL1        0.2701
      4 N         140.3665  145.1300  156.9252 N.am    1  UNL1       -0.2663
      5 H         139.7400  144.3709  156.9496 H       1  UNL1        0.1564
      6 C         140.1497  146.2503  155.9516 C.ar    1  UNL1        0.1344
      7 C         139.1924  147.3567  156.2824 C.ar    1  UNL1        0.0368
      8 C         138.9756  148.4770  155.3089 C.ar    1  UNL1        0.0341
      9 C         139.7162  148.4910  154.0044 C.ar    1  UNL1        0.1593
     10 F         139.4994  149.6113  153.0309 F       1  UNL1       -0.2025
     11 C         140.6735  147.3846  153.6736 C.ar    1  UNL1        0.1298
     12 N         140.8902  146.2642  154.6473 N.ar    1  UNL1       -0.2267
     13 C         141.4079  142.6385  158.4484 C.3     1  UNL1        0.1952
     14 O         139.9725  142.2058  158.4004 O.3     1  UNL1       -0.3467
     15 C         138.9452  142.9223  159.2259 C.3     1  UNL1        0.1740
     16 C         138.3534  142.2548  160.4317 C.3     1  UNL1        0.1692
     17 O         137.6125  143.0680  161.4513 O.3     1  UNL1       -0.3794
     18 H         138.2281  143.6769  161.8886 H       1  UNL1        0.2105
     19 O         142.3179  144.3326  160.1953 O.3     1  UNL1       -0.4517
     20 C         141.4617  144.1561  161.4142 C.ar    1  UNL1        0.2312
     21 N         140.6196  145.2940  161.9104 N.ar    1  UNL1       -0.1892
     22 C         139.7634  145.1175  163.1292 C.ar    1  UNL1        0.2029
     23 N         139.7492  143.8031  163.8520 N.ar    1  UNL1       -0.2046
     24 C         140.5913  142.6653  163.3558 C.ar    1  UNL1        0.1715
     25 C         141.4475  142.8418  162.1370 C.ar    1  UNL1        0.1098
     26 C         142.1667  141.5498  161.8846 C.ar    1  UNL1        0.1283
     27 N         141.7550  140.5749  162.9476 N.ar    1  UNL1       -0.1619
     28 N         140.7813  141.2643  163.8568 N.ar    1  UNL1       -0.2103
     29 C         140.1146  140.6590  165.0565 C.ar    1  UNL1        0.1054
     30 C         140.7603  140.7643  166.4063 C.ar    1  UNL1        0.0762
     31 CL        142.0727  141.4751  166.5565 Cl      1  UNL1       -0.0806
     32 C         140.0937  140.1590  167.6059 C.ar    1  UNL1        0.0130
     33 C         138.7813  139.4483  167.4558 C.ar    1  UNL1        0.0018
     34 C         138.1356  139.3429  166.1060 C.ar    1  UNL1        0.0130
     35 C         138.8022  139.9482  164.9064 C.ar    1  UNL1        0.0762
     36 CL        138.1565  139.8428  163.5566 Cl      1  UNL1       -0.0806
@<TRIPOS>BOND
     1     2     3    2
     2     3     4   am
     3     4     6    1
     4     6     7   ar
     5     7     8   ar
     6     8     9   ar
     7     9    10    1
     8     9    11   ar
     9    11    12   ar
    10     3     1    1
    11     1    13    1
    12    13    14    1
    13    14    15    1
    14    15    16    1
    15    16    17    1
    16     1    19    1
    17    19    20    1
    18    20    21   ar
    19    21    22   ar
    20    22    23   ar
    21    23    24   ar
    22    24    25   ar
    23    25    26   ar
    24    26    27   ar
    25    27    28   ar
    26    28    29    1
    27    29    30   ar
    28    30    31    1
    29    30    32   ar
    30    32    33   ar
    31    33    34   ar
    32    34    35   ar
    33    35    36    1
    34    12     6   ar
    35    25    20   ar
    36    35    29   ar
    37    28    24   ar
    38     4     5    1
    39    17    18    1
@<TRIPOS>MOLECULE
*****
 36 39 0 0 0
SMALL
GASTEIGER

@<TRIPOS>ATOM
      1 C         137.9411  140.5192  161.7932 C.3     1  UNL1        0.2722
      2 O         139.9901  140.6876  160.2047 O.2     1  UNL1       -0.2707
      3 C         138.8028  141.3232  160.8652 C.2     1  UNL1        0.2701
      4 N         138.4772  142.7628  160.5978 N.am    1  UNL1       -0.2663
      5 H         137.6979  143.1800  161.0314 H       1  UNL1        0.1564
      6 C         139.3388  143.5668  159.6699 C.ar    1  UNL1        0.1344
      7 C         140.3415  144.5337  160.2263 C.ar    1  UNL1        0.0368
      8 C         141.2031  145.3377  159.2984 C.ar    1  UNL1        0.0341
      9 C         141.0621  145.1748  157.8139 C.ar    1  UNL1        0.1593
     10 F         141.9237  145.9788  156.8859 F       1  UNL1       -0.2025
     11 C         140.0594  144.2079  157.2574 C.ar    1  UNL1        0.1298
     12 N         139.1977  143.4039  158.1855 N.ar    1  UNL1       -0.2267
     13 C         137.7688  139.0461  161.5693 C.3     1  UNL1        0.1952
     14 O         138.5563  138.0660  162.3874 O.3     1  UNL1       -0.3467
     15 C         140.0557  138.1076  162.3691 C.3     1  UNL1        0.1740
     16 C         140.8428  137.1584  163.2232 C.3     1  UNL1        0.1692
     17 O         140.8283  137.3045  164.7160 O.3     1  UNL1       -0.3794
     18 H         141.2568  138.1388  164.9634 H       1  UNL1        0.2105
     19 O         137.2517  141.1884  162.9451 O.3     1  UNL1       -0.4517
     20 C         138.0448  142.0048  163.9222 C.ar    1  UNL1        0.2312
     21 N         138.0808  143.4990  163.7959 N.ar    1  UNL1       -0.1892
     22 C         138.8739  144.3153  164.7730 C.ar    1  UNL1        0.2029
     23 N         139.6310  143.6374  165.8762 N.ar    1  UNL1       -0.2046
     24 C         139.5951  142.1432  166.0025 C.ar    1  UNL1        0.1715
     25 C         138.8020  141.3269  165.0255 C.ar    1  UNL1        0.1098
     26 C         138.9528  139.8818  165.3986 C.ar    1  UNL1        0.1283
     27 N         139.8392  139.8051  166.6063 N.ar    1  UNL1       -0.1619
     28 N         140.2361  141.2027  166.9795 N.ar    1  UNL1       -0.2103
     29 C         141.1190  141.5915  168.1280 C.ar    1  UNL1        0.1054
     30 C         140.5993  141.5151  169.5330 C.ar    1  UNL1        0.0762
     31 CL        139.1965  141.0499  169.7895 Cl      1  UNL1       -0.0806
     32 C         141.4823  141.9040  170.6815 C.ar    1  UNL1        0.0130
     33 C         142.8850  142.3692  170.4251 C.ar    1  UNL1        0.0018
     34 C         143.4048  142.4456  169.0202 C.ar    1  UNL1        0.0130
     35 C         142.5218  142.0568  167.8716 C.ar    1  UNL1        0.0762
     36 CL        143.0417  142.1332  166.4667 Cl      1  UNL1       -0.0806
@<TRIPOS>BOND
     1     2     3    2
     2     3     4   am
     3     4     6    1
     4     6     7   ar
     5     7     8   ar
     6     8     9   ar
     7     9    10    1
     8     9    11   ar
     9    11    12   ar
    10     3     1    1
    11     1    13    1
    12    13    14    1
    13    14    15    1
    14    15    16    1
    15    16    17    1
    16     1    19    1
    17    19    20    1
    18    20    21   ar
    19    21    22   ar
    20    22    23   ar
    21    23    24   ar
    22    24    25   ar
    23    25    26   ar
    24    26    27   ar
    25    27    28   ar
    26    28    29    1
    27    29    30   ar
    28    30    31    1
    29    30    32   ar
    30    32    33   ar
    31    33    34   ar
    32    34    35   ar
    33    35    36    1
    34    12     6   ar
    35    25    20   ar
    36    35    29   ar
    37    28    24   ar
    38     4     5    1
    39    17    18    1
@<TRIPOS>MOLECULE
*****
 36 39 0 0 0
SMALL
GASTEIGER

@<TRIPOS>ATOM
      1 C         141.3894  138.8210  161.9513 C.3     1  UNL1        0.2722
      2 O         139.8052  140.4043  160.6346 O.2     1  UNL1       -0.2707
      3 C         140.8560  140.1975  161.6848 C.2     1  UNL1        0.2701
      4 N         141.3736  141.3671  162.4684 N.am    1  UNL1       -0.2663
      5 H         142.0633  141.2313  163.1577 H       1  UNL1        0.1564
      6 C         140.8403  142.7435  162.2019 C.ar    1  UNL1        0.1344
      7 C         141.5689  143.6618  161.2660 C.ar    1  UNL1        0.0368
      8 C         141.0356  145.0383  160.9995 C.ar    1  UNL1        0.0341
      9 C         139.7738  145.4964  161.6688 C.ar    1  UNL1        0.1593
     10 F         139.2405  146.8728  161.4023 F       1  UNL1       -0.2025
     11 C         139.0453  144.5780  162.6047 C.ar    1  UNL1        0.1298
     12 N         139.5786  143.2015  162.8712 N.ar    1  UNL1       -0.2267
     13 C         142.6245  138.3455  161.2455 C.3     1  UNL1        0.1952
     14 O         143.9789  138.7332  161.7605 O.3     1  UNL1       -0.3467
     15 C         144.4454  140.1545  161.6481 C.3     1  UNL1        0.1740
     16 C         144.9711  140.8692  162.8576 C.3     1  UNL1        0.1692
     17 O         146.0541  141.8964  162.7101 O.3     1  UNL1       -0.3794
     18 H         146.8694  141.4656  162.4090 H       1  UNL1        0.2105
     19 O         140.6875  137.9201  162.9238 O.3     1  UNL1       -0.4517
     20 C         140.1255  138.4823  164.1959 C.ar    1  UNL1        0.2312
     21 N         138.6492  138.4223  164.4547 N.ar    1  UNL1       -0.1892
     22 C         138.0874  138.9845  165.7267 C.ar    1  UNL1        0.2029
     23 N         139.0017  139.6067  166.7400 N.ar    1  UNL1       -0.2046
     24 C         140.4780  139.6667  166.4813 C.ar    1  UNL1        0.1715
     25 C         141.0399  139.1045  165.2092 C.ar    1  UNL1        0.1098
     26 C         142.5263  139.3053  165.2304 C.ar    1  UNL1        0.1283
     27 N         142.8830  139.9916  166.5156 N.ar    1  UNL1       -0.1619
     28 N         141.6171  140.2150  167.2887 N.ar    1  UNL1       -0.2103
     29 C         141.5092  140.8714  168.6331 C.ar    1  UNL1        0.1054
     30 C         141.9759  140.1472  169.8610 C.ar    1  UNL1        0.0762
     31 CL        142.5506  138.7665  169.7444 Cl      1  UNL1       -0.0806
     32 C         141.8680  140.8036  171.2054 C.ar    1  UNL1        0.0130
     33 C         141.2933  142.1842  171.3220 C.ar    1  UNL1        0.0018
     34 C         140.8266  142.9084  170.0941 C.ar    1  UNL1        0.0130
     35 C         140.9345  142.2520  168.7497 C.ar    1  UNL1        0.0762
     36 CL        140.4678  142.9763  167.5219 Cl      1  UNL1       -0.0806
@<TRIPOS>BOND
     1     2     3    2
     2     3     4   am
     3     4     6    1
     4     6     7   ar
     5     7     8   ar
     6     8     9   ar
     7     9    10    1
     8     9    11   ar
     9    11    12   ar
    10     3     1    1
    11     1    13    1
    12    13    14    1
    13    14    15    1
    14    15    16    1
    15    16    17    1
    16     1    19    1
    17    19    20    1
    18    20    21   ar
    19    21    22   ar
    20    22    23   ar
    21    23    24   ar
    22    24    25   ar
    23    25    26   ar
    24    26    27   ar
    25    27    28   ar
    26    28    29    1
    27    29    30   ar
    28    30    31    1
    29    30    32   ar
    30    32    33   ar
    31    33    34   ar
    32    34    35   ar
    33    35    36    1
    34    12     6   ar
    35    25    20   ar
    36    35    29   ar
    37    28    24   ar
    38     4     5    1
    39    17    18    1
@<TRIPOS>MOLECULE
*****
 36 39 0 0 0
SMALL
GASTEIGER

@<TRIPOS>ATOM
      1 C         144.3660  140.3575  164.3280 C.3     1  UNL1        0.2722
      2 O         142.3417  141.9156  164.8018 O.2     1  UNL1       -0.2707
      3 C         143.3255  140.8851  165.2709 C.2     1  UNL1        0.2701
      4 N         143.2689  140.3822  166.6829 N.am    1  UNL1       -0.2663
      5 H         143.9147  139.7058  166.9908 H       1  UNL1        0.1564
      6 C         142.2285  140.9097  167.6259 C.ar    1  UNL1        0.1344
      7 C         142.4756  142.1830  168.3792 C.ar    1  UNL1        0.0368
      8 C         141.4352  142.7106  169.3222 C.ar    1  UNL1        0.0341
      9 C         140.1475  141.9648  169.5118 C.ar    1  UNL1        0.1593
     10 F         139.1071  142.4923  170.4547 F       1  UNL1       -0.2025
     11 C         139.9004  140.6914  168.7584 C.ar    1  UNL1        0.1298
     12 N         140.9410  140.1639  167.8154 N.ar    1  UNL1       -0.2267
     13 C         145.5125  141.2305  163.9115 C.3     1  UNL1        0.1952
     14 O         145.5592  141.7954  162.5227 O.3     1  UNL1       -0.3467
     15 C         144.4370  142.6579  162.0258 C.3     1  UNL1        0.1740
     16 C         144.2637  144.0471  162.5644 C.3     1  UNL1        0.1692
     17 O         143.1631  144.9222  162.0419 O.3     1  UNL1       -0.3794
     18 H         143.3300  145.1294  161.1091 H       1  UNL1        0.2105
     19 O         144.2600  138.9570  163.8015 O.3     1  UNL1       -0.4517
     20 C         143.0761  138.5549  162.9727 C.ar    1  UNL1        0.2312
     21 N         141.8575  137.9824  163.6338 N.ar    1  UNL1       -0.1892
     22 C         140.6737  137.5803  162.8050 C.ar    1  UNL1        0.2029
     23 N         140.7086  137.7508  161.3151 N.ar    1  UNL1       -0.2046
     24 C         141.9272  138.3232  160.6541 C.ar    1  UNL1        0.1715
     25 C         143.1110  138.7253  161.4829 C.ar    1  UNL1        0.1098
     26 C         144.1652  139.2575  160.5579 C.ar    1  UNL1        0.1283
     27 N         143.6329  139.1843  159.1575 N.ar    1  UNL1       -0.1619
     28 N         142.2498  138.6069  159.2169 N.ar    1  UNL1       -0.2103
     29 C         141.3475  138.3571  158.0449 C.ar    1  UNL1        0.1054
     30 C         141.6370  137.2260  157.1032 C.ar    1  UNL1        0.0762
     31 CL        142.8288  136.3447  157.3335 Cl      1  UNL1       -0.0806
     32 C         140.7348  136.9762  155.9313 C.ar    1  UNL1        0.0130
     33 C         139.5430  137.8574  155.7009 C.ar    1  UNL1        0.0018
     34 C         139.2535  138.9885  156.6426 C.ar    1  UNL1        0.0130
     35 C         140.1557  139.2384  157.8146 C.ar    1  UNL1        0.0762
     36 CL        139.8662  140.3695  158.7563 Cl      1  UNL1       -0.0806
@<TRIPOS>BOND
     1     2     3    2
     2     3     4   am
     3     4     6    1
     4     6     7   ar
     5     7     8   ar
     6     8     9   ar
     7     9    10    1
     8     9    11   ar
     9    11    12   ar
    10     3     1    1
    11     1    13    1
    12    13    14    1
    13    14    15    1
    14    15    16    1
    15    16    17    1
    16     1    19    1
    17    19    20    1
    18    20    21   ar
    19    21    22   ar
    20    22    23   ar
    21    23    24   ar
    22    24    25   ar
    23    25    26   ar
    24    26    27   ar
    25    27    28   ar
    26    28    29    1
    27    29    30   ar
    28    30    31    1
    29    30    32   ar
    30    32    33   ar
    31    33    34   ar
    32    34    35   ar
    33    35    36    1
    34    12     6   ar
    35    25    20   ar
    36    35    29   ar
    37    28    24   ar
    38     4     5    1
    39    17    18    1
@<TRIPOS>MOLECULE
*****
 36 39 0 0 0
SMALL
GASTEIGER

@<TRIPOS>ATOM
      1 C         140.4937  144.8985  161.3779 C.3     1  UNL1        0.2722
      2 O         138.1601  143.7635  161.5067 O.2     1  UNL1       -0.2707
      3 C         139.6553  143.6568  161.4518 C.2     1  UNL1        0.2701
      4 N         140.3122  142.3084  161.4707 N.am    1  UNL1       -0.2663
      5 H         141.2935  142.2384  161.4347 H       1  UNL1        0.1564
      6 C         139.4739  141.0667  161.5447 C.ar    1  UNL1        0.1344
      7 C         139.3285  140.3363  162.8467 C.ar    1  UNL1        0.0368
      8 C         138.4903  139.0947  162.9206 C.ar    1  UNL1        0.0341
      9 C         137.7973  138.5833  161.6924 C.ar    1  UNL1        0.1593
     10 F         136.9590  137.3417  161.7663 F       1  UNL1       -0.2025
     11 C         137.9426  139.3137  160.3904 C.ar    1  UNL1        0.1298
     12 N         138.7810  140.5555  160.3165 N.ar    1  UNL1       -0.2267
     13 C         140.8130  145.5096  160.0458 C.3     1  UNL1        0.1952
     14 O         142.1262  145.2179  159.3822 O.3     1  UNL1       -0.3467
     15 C         142.2891  143.9775  158.5546 C.3     1  UNL1        0.1740
     16 C         141.0829  143.2950  157.9807 C.3     1  UNL1        0.1692
     17 O         140.7542  141.8882  158.3842 O.3     1  UNL1       -0.3794
     18 H         141.4471  141.2897  158.0638 H       1  UNL1        0.2105
     19 O         141.0127  145.5290  162.6361 O.3     1  UNL1       -0.4517
     20 C         141.8752  144.7353  163.5721 C.ar    1  UNL1        0.2312
     21 N         143.3681  144.7743  163.4315 N.ar    1  UNL1       -0.1892
     22 C         144.2305  143.9806  164.3675 C.ar    1  UNL1        0.2029
     23 N         143.6001  143.1479  165.4442 N.ar    1  UNL1       -0.2046
     24 C         142.1073  143.1089  165.5848 C.ar    1  UNL1        0.1715
     25 C         141.2448  143.9025  164.6488 C.ar    1  UNL1        0.1098
     26 C         139.8124  143.6692  165.0279 C.ar    1  UNL1        0.1283
     27 N         139.7896  142.7313  166.1983 N.ar    1  UNL1       -0.1619
     28 N         141.2079  142.3850  166.5425 N.ar    1  UNL1       -0.2103
     29 C         141.6494  141.4746  167.6498 C.ar    1  UNL1        0.1054
     30 C         141.5511  141.9267  169.0767 C.ar    1  UNL1        0.0762
     31 CL        141.0112  143.2892  169.3962 Cl      1  UNL1       -0.0806
     32 C         141.9925  141.0163  170.1841 C.ar    1  UNL1        0.0130
     33 C         142.5324  139.6538  169.8646 C.ar    1  UNL1        0.0018
     34 C         142.6308  139.2017  168.4378 C.ar    1  UNL1        0.0130
     35 C         142.1893  140.1121  167.3304 C.ar    1  UNL1        0.0762
     36 CL        142.2877  139.6599  165.9036 Cl      1  UNL1       -0.0806
@<TRIPOS>BOND
     1     2     3    2
     2     3     4   am
     3     4     6    1
     4     6     7   ar
     5     7     8   ar
     6     8     9   ar
     7     9    10    1
     8     9    11   ar
     9    11    12   ar
    10     3     1    1
    11     1    13    1
    12    13    14    1
    13    14    15    1
    14    15    16    1
    15    16    17    1
    16     1    19    1
    17    19    20    1
    18    20    21   ar
    19    21    22   ar
    20    22    23   ar
    21    23    24   ar
    22    24    25   ar
    23    25    26   ar
    24    26    27   ar
    25    27    28   ar
    26    28    29    1
    27    29    30   ar
    28    30    31    1
    29    30    32   ar
    30    32    33   ar
    31    33    34   ar
    32    34    35   ar
    33    35    36    1
    34    12     6   ar
    35    25    20   ar
    36    35    29   ar
    37    28    24   ar
    38     4     5    1
    39    17    18    1
@<TRIPOS>MOLECULE
*****
 36 39 0 0 0
SMALL
GASTEIGER

@<TRIPOS>ATOM
      1 C         141.2206  139.3615  159.5096 C.3     1  UNL1        0.2722
      2 O         139.9419  137.9258  157.7621 O.2     1  UNL1       -0.2707
      3 C         141.2331  138.3774  158.3775 C.2     1  UNL1        0.2701
      4 N         142.5368  137.8450  157.8609 N.am    1  UNL1       -0.2663
      5 H         143.3843  138.1414  158.2649 H       1  UNL1        0.1564
      6 C         142.5494  136.8610  156.7289 C.ar    1  UNL1        0.1344
      7 C         142.9455  135.4359  156.9782 C.ar    1  UNL1        0.0368
      8 C         142.9581  134.4519  155.8462 C.ar    1  UNL1        0.0341
      9 C         142.5744  134.8930  154.4647 C.ar    1  UNL1        0.1593
     10 F         142.5869  133.9090  153.3327 F       1  UNL1       -0.2025
     11 C         142.1782  136.3181  154.2154 C.ar    1  UNL1        0.1298
     12 N         142.1657  137.3021  155.3475 N.ar    1  UNL1       -0.2267
     13 C         142.2919  140.4068  159.6065 C.3     1  UNL1        0.1952
     14 O         143.7079  140.0050  159.8958 O.3     1  UNL1       -0.3467
     15 C         144.1008  139.5881  161.2822 C.3     1  UNL1        0.1740
     16 C         144.0872  138.1368  161.6610 C.3     1  UNL1        0.1692
     17 O         143.4449  137.1306  160.7528 O.3     1  UNL1       -0.3794
     18 H         142.4901  137.2962  160.7106 H       1  UNL1        0.2105
     19 O         140.1367  139.3001  160.5447 O.3     1  UNL1       -0.4517
     20 C         140.4607  138.8719  161.9454 C.ar    1  UNL1        0.2312
     21 N         140.7418  137.4287  162.2424 N.ar    1  UNL1       -0.1892
     22 C         141.0657  137.0006  163.6429 C.ar    1  UNL1        0.2029
     23 N         141.1085  138.0156  164.7465 N.ar    1  UNL1       -0.2046
     24 C         140.8275  139.4587  164.4496 C.ar    1  UNL1        0.1715
     25 C         140.5035  139.8869  163.0490 C.ar    1  UNL1        0.1098
     26 C         140.2726  141.3690  163.0590 C.ar    1  UNL1        0.1283
     27 N         140.4538  141.8568  164.4658 N.ar    1  UNL1       -0.1619
     28 N         140.7968  140.6762  165.3252 N.ar    1  UNL1       -0.2103
     29 C         141.0623  140.7075  166.8012 C.ar    1  UNL1        0.1054
     30 C         140.0745  140.1024  167.7540 C.ar    1  UNL1        0.0762
     31 CL        138.8210  139.4659  167.2309 Cl      1  UNL1       -0.0806
     32 C         140.3401  140.1337  169.2300 C.ar    1  UNL1        0.0130
     33 C         141.5936  140.7702  169.7532 C.ar    1  UNL1        0.0018
     34 C         142.5814  141.3753  168.8003 C.ar    1  UNL1        0.0130
     35 C         142.3158  141.3440  167.3244 C.ar    1  UNL1        0.0762
     36 CL        143.3037  141.9491  166.3716 Cl      1  UNL1       -0.0806
@<TRIPOS>BOND
     1     2     3    2
     2     3     4   am
     3     4     6    1
     4     6     7   ar
     5     7     8   ar
     6     8     9   ar
     7     9    10    1
     8     9    11   ar
     9    11    12   ar
    10     3     1    1
    11     1    13    1
    12    13    14    1
    13    14    15    1
    14    15    16    1
    15    16    17    1
    16     1    19    1
    17    19    20    1
    18    20    21   ar
    19    21    22   ar
    20    22    23   ar
    21    23    24   ar
    22    24    25   ar
    23    25    26   ar
    24    26    27   ar
    25    27    28   ar
    26    28    29    1
    27    29    30   ar
    28    30    31    1
    29    30    32   ar
    30    32    33   ar
    31    33    34   ar
    32    34    35   ar
    33    35    36    1
    34    12     6   ar
    35    25    20   ar
    36    35    29   ar
    37    28    24   ar
    38     4     5    1
    39    17    18    1
