@<TRIPOS>MOLECULE
*****
 29 33 0 0 0
SMALL
GASTEIGER

@<TRIPOS>ATOM
      1 C         141.7459  142.1777  165.2472 C.ar    1  UNL1        0.1318
      2 C         142.0659  142.1643  166.7126 C.ar    1  UNL1        0.0358
      3 C         141.2062  141.3822  167.6608 C.ar    1  UNL1        0.0217
      4 C         140.0265  140.6135  167.1437 C.ar    1  UNL1        0.0223
      5 C         139.1668  139.8314  168.0920 C.ar    1  UNL1        0.0222
      6 C         137.9871  139.0628  167.5748 C.ar    1  UNL1        0.0990
      7 N         137.6671  139.0762  166.1094 N.ar    1  UNL1       -0.2408
      8 C         138.5268  139.8583  165.1612 C.ar    1  UNL1        0.1159
      9 C         139.7065  140.6269  165.6783 C.ar    1  UNL1        0.1018
     10 N         140.5662  141.4091  164.7300 N.ar    1  UNL1       -0.2291
     11 C         144.0487  140.8441  163.8621 C.3     1  UNL1        0.0241
     12 C         143.7570  142.2930  163.6064 C.3     1  UNL1        0.1038
     13 C         144.6167  143.0752  162.6582 C.3     1  UNL1        0.1618
     14 O         144.3250  144.5241  162.4025 O.3     1  UNL1       -0.3502
     15 C         143.1736  145.1910  163.0950 C.3     1  UNL1        0.1636
     16 C         142.3140  144.4088  164.0432 C.3     1  UNL1        0.1242
     17 N         142.6057  142.9599  164.2989 N.pl3   1  UNL1       -0.2898
     18 C         141.5262  141.3687  169.1263 C.ar    1  UNL1        0.0796
     19 C         142.2501  140.2794  169.8607 C.ar    1  UNL1        0.0412
     20 C         142.3498  140.6797  171.3029 C.ar    1  UNL1        0.1217
     21 N         141.6876  142.0164  171.4598 N.ar    1  UNL1       -0.1676
     22 N         141.1786  142.4422  170.1145 N.ar    1  UNL1       -0.2488
     23 C         140.4498  143.7177  169.8110 C.3     1  UNL1        0.1537
     24 C         138.2068  139.8718  163.6958 C.ar    1  UNL1        0.0945
     25 C         138.3630  138.7192  162.7485 C.ar    1  UNL1        0.0425
     26 C         137.9271  139.1753  161.3876 C.ar    1  UNL1        0.1215
     27 N         137.5015  140.6097  161.4938 N.ar    1  UNL1       -0.1710
     28 N         137.6743  141.0401  162.9203 N.ar    1  UNL1       -0.2742
     29 H         137.4735  141.9328  163.2837 H       1  UNL1        0.1890
@<TRIPOS>BOND
     1    12    11    1
     2    12    13    1
     3    13    14    1
     4    14    15    1
     5    15    16    1
     6    16    17    1
     7    17     1    1
     8     1     2   ar
     9     2     3   ar
    10     3    18    1
    11    18    19   ar
    12    19    20   ar
    13    20    21   ar
    14    21    22   ar
    15    22    23    1
    16     3     4   ar
    17     4     5   ar
    18     5     6   ar
    19     6     7   ar
    20     7     8   ar
    21     8    24    1
    22    24    25   ar
    23    25    26   ar
    24    26    27   ar
    25    27    28   ar
    26     8     9   ar
    27     9    10   ar
    28    17    12    1
    29    10     1   ar
    30    22    18   ar
    31     9     4   ar
    32    28    24   ar
    33    28    29    1
@<TRIPOS>MOLECULE
*****
 29 33 0 0 0
SMALL
GASTEIGER

@<TRIPOS>ATOM
      1 C         141.6535  141.9025  165.1341 C.ar    1  UNL1        0.1318
      2 C         141.7605  142.0820  166.6194 C.ar    1  UNL1        0.0358
      3 C         140.8343  141.3362  167.5337 C.ar    1  UNL1        0.0217
      4 C         139.8010  140.4108  166.9625 C.ar    1  UNL1        0.0223
      5 C         138.8748  139.6650  167.8767 C.ar    1  UNL1        0.0222
      6 C         137.8416  138.7397  167.3055 C.ar    1  UNL1        0.0990
      7 N         137.7347  138.5602  165.8201 N.ar    1  UNL1       -0.2408
      8 C         138.6609  139.3060  164.9059 C.ar    1  UNL1        0.1159
      9 C         139.6941  140.2313  165.4771 C.ar    1  UNL1        0.1018
     10 N         140.6204  140.9772  164.5629 N.ar    1  UNL1       -0.2291
     11 C         144.2181  140.6321  164.2346 C.3     1  UNL1        0.0241
     12 C         143.8621  142.0132  163.7702 C.3     1  UNL1        0.1038
     13 C         144.7883  142.7591  162.8560 C.3     1  UNL1        0.1618
     14 O         144.4322  144.1402  162.3915 O.3     1  UNL1       -0.3502
     15 C         143.1500  144.7754  162.8412 C.3     1  UNL1        0.1636
     16 C         142.2238  144.0295  163.7554 C.3     1  UNL1        0.1242
     17 N         142.5798  142.6484  164.2199 N.pl3   1  UNL1       -0.2898
     18 C         140.9412  141.5157  169.0190 C.ar    1  UNL1        0.0796
     19 C         140.3305  142.6280  169.8190 C.ar    1  UNL1        0.0412
     20 C         140.6895  142.4141  171.2596 C.ar    1  UNL1        0.1217
     21 N         141.5221  141.1697  171.3500 N.ar    1  UNL1       -0.1676
     22 N         141.6777  140.6145  169.9653 N.ar    1  UNL1       -0.2488
     23 C         142.4365  139.3755  169.5923 C.3     1  UNL1        0.1537
     24 C         138.5539  139.1265  163.4206 C.ar    1  UNL1        0.0945
     25 C         139.2965  138.1148  162.5990 C.ar    1  UNL1        0.0425
     26 C         138.8871  138.2902  161.1666 C.ar    1  UNL1        0.1215
     27 N         137.8916  139.4104  161.1029 N.ar    1  UNL1       -0.1710
     28 N         137.6857  139.9272  162.4959 N.ar    1  UNL1       -0.2742
     29 H         137.0859  140.6629  162.7575 H       1  UNL1        0.1890
@<TRIPOS>BOND
     1    12    11    1
     2    12    13    1
     3    13    14    1
     4    14    15    1
     5    15    16    1
     6    16    17    1
     7    17     1    1
     8     1     2   ar
     9     2     3   ar
    10     3    18    1
    11    18    19   ar
    12    19    20   ar
    13    20    21   ar
    14    21    22   ar
    15    22    23    1
    16     3     4   ar
    17     4     5   ar
    18     5     6   ar
    19     6     7   ar
    20     7     8   ar
    21     8    24    1
    22    24    25   ar
    23    25    26   ar
    24    26    27   ar
    25    27    28   ar
    26     8     9   ar
    27     9    10   ar
    28    17    12    1
    29    10     1   ar
    30    22    18   ar
    31     9     4   ar
    32    28    24   ar
    33    28    29    1
@<TRIPOS>MOLECULE
*****
 29 33 0 0 0
SMALL
GASTEIGER

@<TRIPOS>ATOM
      1 C         141.2456  141.9932  165.2652 C.ar    1  UNL1        0.1318
      2 C         140.6292  141.2958  164.0889 C.ar    1  UNL1        0.0358
      3 C         139.5707  140.2551  164.3042 C.ar    1  UNL1        0.0217
      4 C         139.1286  139.9116  165.6958 C.ar    1  UNL1        0.0223
      5 C         138.0701  138.8709  165.9111 C.ar    1  UNL1        0.0222
      6 C         137.6280  138.5275  167.3027 C.ar    1  UNL1        0.0990
      7 N         138.2444  139.2249  168.4790 N.ar    1  UNL1       -0.2408
      8 C         139.3029  140.2656  168.2638 C.ar    1  UNL1        0.1159
      9 C         139.7450  140.6090  166.8721 C.ar    1  UNL1        0.1018
     10 N         140.8035  141.6498  166.6568 N.ar    1  UNL1       -0.2291
     11 C         140.6229  144.4592  163.6742 C.3     1  UNL1        0.0241
     12 C         141.9927  144.2670  164.2544 C.3     1  UNL1        0.1038
     13 C         143.0512  145.3077  164.0390 C.3     1  UNL1        0.1618
     14 O         144.4211  145.1155  164.6192 O.3     1  UNL1       -0.3502
     15 C         144.7324  143.8825  165.4147 C.3     1  UNL1        0.1636
     16 C         143.6739  142.8418  165.6300 C.3     1  UNL1        0.1242
     17 N         142.3041  143.0340  165.0498 N.pl3   1  UNL1       -0.2898
     18 C         138.9543  139.5577  163.1279 C.ar    1  UNL1        0.0796
     19 C         137.7966  140.0561  162.3147 C.ar    1  UNL1        0.0412
     20 C         137.5142  139.0459  161.2424 C.ar    1  UNL1        0.1217
     21 N         138.4974  137.9231  161.3929 N.ar    1  UNL1       -0.1676
     22 N         139.3874  138.2394  162.5581 N.ar    1  UNL1       -0.2488
     23 C         140.5130  137.3870  163.0647 C.3     1  UNL1        0.1537
     24 C         139.9193  140.9630  169.4401 C.ar    1  UNL1        0.0945
     25 C         141.3536  140.8686  169.8688 C.ar    1  UNL1        0.0425
     26 C         141.5304  141.7245  171.0879 C.ar    1  UNL1        0.1215
     27 N         140.2053  142.3479  171.4126 N.ar    1  UNL1       -0.1710
     28 N         139.2096  141.8773  170.3942 N.ar    1  UNL1       -0.2742
     29 H         138.2574  142.1250  170.3584 H       1  UNL1        0.1890
@<TRIPOS>BOND
     1    12    11    1
     2    12    13    1
     3    13    14    1
     4    14    15    1
     5    15    16    1
     6    16    17    1
     7    17     1    1
     8     1     2   ar
     9     2     3   ar
    10     3    18    1
    11    18    19   ar
    12    19    20   ar
    13    20    21   ar
    14    21    22   ar
    15    22    23    1
    16     3     4   ar
    17     4     5   ar
    18     5     6   ar
    19     6     7   ar
    20     7     8   ar
    21     8    24    1
    22    24    25   ar
    23    25    26   ar
    24    26    27   ar
    25    27    28   ar
    26     8     9   ar
    27     9    10   ar
    28    17    12    1
    29    10     1   ar
    30    22    18   ar
    31     9     4   ar
    32    28    24   ar
    33    28    29    1
@<TRIPOS>MOLECULE
*****
 29 33 0 0 0
SMALL
GASTEIGER

@<TRIPOS>ATOM
      1 C         140.7270  142.7147  164.7007 C.ar    1  UNL1        0.1318
      2 C         140.4386  142.7641  166.1718 C.ar    1  UNL1        0.0358
      3 C         141.0477  141.7465  167.0902 C.ar    1  UNL1        0.0217
      4 C         141.9454  140.6794  166.5373 C.ar    1  UNL1        0.0223
      5 C         142.5546  139.6618  167.4557 C.ar    1  UNL1        0.0222
      6 C         143.4522  138.5948  166.9028 C.ar    1  UNL1        0.0990
      7 N         143.7406  138.5453  165.4317 N.ar    1  UNL1       -0.2408
      8 C         143.1315  139.5629  164.5133 C.ar    1  UNL1        0.1159
      9 C         142.2338  140.6300  165.0662 C.ar    1  UNL1        0.1018
     10 N         141.6246  141.6476  164.1478 N.ar    1  UNL1       -0.2291
     11 C         142.3869  144.9929  163.6738 C.3     1  UNL1        0.0241
     12 C         140.9477  144.8714  163.2689 C.3     1  UNL1        0.1038
     13 C         140.3385  145.8890  162.3506 C.3     1  UNL1        0.1618
     14 O         138.8993  145.7675  161.9457 O.3     1  UNL1       -0.3502
     15 C         138.0694  144.6284  162.4591 C.3     1  UNL1        0.1636
     16 C         138.6786  143.6108  163.3774 C.3     1  UNL1        0.1242
     17 N         140.1178  143.7323  163.7823 N.pl3   1  UNL1       -0.2898
     18 C         140.7593  141.7960  168.5613 C.ar    1  UNL1        0.0796
     19 C         141.3872  142.7310  169.5520 C.ar    1  UNL1        0.0412
     20 C         140.8083  142.4320  170.9031 C.ar    1  UNL1        0.1217
     21 N         139.8225  141.3121  170.7475 N.ar    1  UNL1       -0.1676
     22 N         139.7922  140.9191  169.3002 N.ar    1  UNL1       -0.2488
     23 C         138.9438  139.8388  168.6976 C.3     1  UNL1        0.1537
     24 C         143.4199  139.5135  163.0422 C.ar    1  UNL1        0.0945
     25 C         143.4648  138.2774  162.1935 C.ar    1  UNL1        0.0425
     26 C         143.7868  138.6914  160.7882 C.ar    1  UNL1        0.1215
     27 N         143.9409  140.1833  160.7683 N.ar    1  UNL1       -0.1710
     28 N         143.7141  140.6914  162.1613 N.ar    1  UNL1       -0.2742
     29 H         143.7518  141.6327  162.4472 H       1  UNL1        0.1890
@<TRIPOS>BOND
     1    12    11    1
     2    12    13    1
     3    13    14    1
     4    14    15    1
     5    15    16    1
     6    16    17    1
     7    17     1    1
     8     1     2   ar
     9     2     3   ar
    10     3    18    1
    11    18    19   ar
    12    19    20   ar
    13    20    21   ar
    14    21    22   ar
    15    22    23    1
    16     3     4   ar
    17     4     5   ar
    18     5     6   ar
    19     6     7   ar
    20     7     8   ar
    21     8    24    1
    22    24    25   ar
    23    25    26   ar
    24    26    27   ar
    25    27    28   ar
    26     8     9   ar
    27     9    10   ar
    28    17    12    1
    29    10     1   ar
    30    22    18   ar
    31     9     4   ar
    32    28    24   ar
    33    28    29    1
@<TRIPOS>MOLECULE
*****
 29 33 0 0 0
SMALL
GASTEIGER

@<TRIPOS>ATOM
      1 C         140.6884  142.5439  164.9684 C.ar    1  UNL1        0.1318
      2 C         140.6294  142.7564  166.4521 C.ar    1  UNL1        0.0358
      3 C         141.2781  141.7700  167.3774 C.ar    1  UNL1        0.0217
      4 C         141.9858  140.5710  166.8189 C.ar    1  UNL1        0.0223
      5 C         142.6345  139.5846  167.7442 C.ar    1  UNL1        0.0222
      6 C         143.3421  138.3857  167.1858 C.ar    1  UNL1        0.0990
      7 N         143.4010  138.1732  165.7021 N.ar    1  UNL1       -0.2408
      8 C         142.7523  139.1597  164.7768 C.ar    1  UNL1        0.1159
      9 C         142.0447  140.3585  165.3352 C.ar    1  UNL1        0.1018
     10 N         141.3960  141.3450  164.4100 N.ar    1  UNL1       -0.2291
     11 C         137.7513  142.3496  164.3885 C.3     1  UNL1        0.0241
     12 C         138.5712  143.4332  163.7532 C.3     1  UNL1        0.1038
     13 C         137.9225  144.4197  162.8280 C.3     1  UNL1        0.1618
     14 O         138.7423  145.5034  162.1927 O.3     1  UNL1       -0.3502
     15 C         140.2108  145.6006  162.4826 C.3     1  UNL1        0.1636
     16 C         140.8594  144.6141  163.4078 C.3     1  UNL1        0.1242
     17 N         140.0396  143.5304  164.0431 N.pl3   1  UNL1       -0.2898
     18 C         141.2192  141.9825  168.8611 C.ar    1  UNL1        0.0796
     19 C         139.9957  141.8643  169.7208 C.ar    1  UNL1        0.0412
     20 C         140.3938  142.1593  171.1366 C.ar    1  UNL1        0.1217
     21 N         141.8633  142.4597  171.1520 N.ar    1  UNL1       -0.1676
     22 N         142.3734  142.3504  169.7456 N.ar    1  UNL1       -0.2488
     23 C         143.7892  142.5705  169.3017 C.3     1  UNL1        0.1537
     24 C         142.8112  138.9472  163.2931 C.ar    1  UNL1        0.0945
     25 C         144.0583  138.8427  162.4662 C.ar    1  UNL1        0.0425
     26 C         143.6512  138.6328  161.0378 C.ar    1  UNL1        0.1215
     27 N         142.1525  138.6076  160.9819 N.ar    1  UNL1       -0.1710
     28 N         141.6333  138.8019  162.3757 N.ar    1  UNL1       -0.2742
     29 H         140.6859  138.8293  162.6418 H       1  UNL1        0.1890
@<TRIPOS>BOND
     1    12    11    1
     2    12    13    1
     3    13    14    1
     4    14    15    1
     5    15    16    1
     6    16    17    1
     7    17     1    1
     8     1     2   ar
     9     2     3   ar
    10     3    18    1
    11    18    19   ar
    12    19    20   ar
    13    20    21   ar
    14    21    22   ar
    15    22    23    1
    16     3     4   ar
    17     4     5   ar
    18     5     6   ar
    19     6     7   ar
    20     7     8   ar
    21     8    24    1
    22    24    25   ar
    23    25    26   ar
    24    26    27   ar
    25    27    28   ar
    26     8     9   ar
    27     9    10   ar
    28    17    12    1
    29    10     1   ar
    30    22    18   ar
    31     9     4   ar
    32    28    24   ar
    33    28    29    1
@<TRIPOS>MOLECULE
*****
 29 33 0 0 0
SMALL
GASTEIGER

@<TRIPOS>ATOM
      1 C         141.1258  141.7228  167.1970 C.ar    1  UNL1        0.1318
      2 C         141.9597  142.5306  166.2472 C.ar    1  UNL1        0.0358
      3 C         141.9040  142.2496  164.7748 C.ar    1  UNL1        0.0217
      4 C         141.0145  141.1607  164.2522 C.ar    1  UNL1        0.0223
      5 C         140.9588  140.8797  162.7798 C.ar    1  UNL1        0.0222
      6 C         140.0693  139.7909  162.2572 C.ar    1  UNL1        0.0990
      7 N         139.2355  138.9830  163.2070 N.ar    1  UNL1       -0.2408
      8 C         139.2912  139.2640  164.6794 C.ar    1  UNL1        0.1159
      9 C         140.1806  140.3529  165.2020 C.ar    1  UNL1        0.1018
     10 N         140.2363  140.6339  166.6744 N.ar    1  UNL1       -0.2291
     11 C         142.7335  139.9471  169.0033 C.3     1  UNL1        0.0241
     12 C         141.9853  141.1160  169.5725 C.3     1  UNL1        0.1038
     13 C         142.0410  141.3971  171.0449 C.3     1  UNL1        0.1618
     14 O         141.2929  142.5660  171.6141 O.3     1  UNL1       -0.3502
     15 C         140.4891  143.4538  170.7110 C.3     1  UNL1        0.1636
     16 C         140.4334  143.1727  169.2386 C.3     1  UNL1        0.1242
     17 N         141.1815  142.0038  168.6694 N.pl3   1  UNL1       -0.2898
     18 C         142.7378  143.0575  163.8250 C.ar    1  UNL1        0.0796
     19 C         144.1338  142.7333  163.3823 C.ar    1  UNL1        0.0412
     20 C         144.5808  143.8068  162.4349 C.ar    1  UNL1        0.1217
     21 N         143.4611  144.7946  162.2920 N.ar    1  UNL1       -0.1676
     22 N         142.3220  144.3315  163.1512 N.ar    1  UNL1       -0.2488
     23 C         140.9994  145.0213  163.3088 C.3     1  UNL1        0.1537
     24 C         138.4573  138.4561  165.6292 C.ar    1  UNL1        0.0945
     25 C         138.2980  136.9647  165.6132 C.ar    1  UNL1        0.0425
     26 C         137.3786  136.5846  166.7359 C.ar    1  UNL1        0.1215
     27 N         136.9698  137.8412  167.4457 N.ar    1  UNL1       -0.1710
     28 N         137.6364  138.9978  166.7617 N.ar    1  UNL1       -0.2742
     29 H         137.5503  139.9460  167.0122 H       1  UNL1        0.1890
@<TRIPOS>BOND
     1    12    11    1
     2    12    13    1
     3    13    14    1
     4    14    15    1
     5    15    16    1
     6    16    17    1
     7    17     1    1
     8     1     2   ar
     9     2     3   ar
    10     3    18    1
    11    18    19   ar
    12    19    20   ar
    13    20    21   ar
    14    21    22   ar
    15    22    23    1
    16     3     4   ar
    17     4     5   ar
    18     5     6   ar
    19     6     7   ar
    20     7     8   ar
    21     8    24    1
    22    24    25   ar
    23    25    26   ar
    24    26    27   ar
    25    27    28   ar
    26     8     9   ar
    27     9    10   ar
    28    17    12    1
    29    10     1   ar
    30    22    18   ar
    31     9     4   ar
    32    28    24   ar
    33    28    29    1
@<TRIPOS>MOLECULE
*****
 29 33 0 0 0
SMALL
GASTEIGER

@<TRIPOS>ATOM
      1 C         141.4893  140.3683  163.0615 C.ar    1  UNL1        0.1318
      2 C         141.1314  140.0132  164.4743 C.ar    1  UNL1        0.0358
      3 C         140.4446  141.0192  165.3495 C.ar    1  UNL1        0.0217
      4 C         140.1157  142.3805  164.8120 C.ar    1  UNL1        0.0223
      5 C         139.4288  143.3866  165.6872 C.ar    1  UNL1        0.0222
      6 C         139.1000  144.7478  165.1497 C.ar    1  UNL1        0.0990
      7 N         139.4579  145.1029  163.7370 N.ar    1  UNL1       -0.2408
      8 C         140.1447  144.0968  162.8618 C.ar    1  UNL1        0.1159
      9 C         140.4736  142.7356  163.3993 C.ar    1  UNL1        0.1018
     10 N         141.1604  141.7295  162.5240 N.ar    1  UNL1       -0.2291
     11 C         144.3993  139.7636  163.4694 C.3     1  UNL1        0.0241
     12 C         143.6311  139.0598  162.3903 C.3     1  UNL1        0.1038
     13 C         144.3179  138.0537  161.5150 C.3     1  UNL1        0.1618
     14 O         143.5497  137.3499  160.4359 O.3     1  UNL1       -0.3502
     15 C         142.0947  137.6522  160.2320 C.3     1  UNL1        0.1636
     16 C         141.4080  138.6583  161.1072 C.3     1  UNL1        0.1242
     17 N         142.1762  139.3621  162.1863 N.pl3   1  UNL1       -0.2898
     18 C         140.0866  140.6641  166.7622 C.ar    1  UNL1        0.0796
     19 C         140.7757  141.1619  167.9981 C.ar    1  UNL1        0.0412
     20 C         140.0918  140.5543  169.1868 C.ar    1  UNL1        0.1217
     21 N         138.9799  139.6811  168.6856 N.ar    1  UNL1       -0.1676
     22 N         138.9768  139.7490  167.1871 N.ar    1  UNL1       -0.2488
     23 C         138.0299  139.0282  166.2739 C.3     1  UNL1        0.1537
     24 C         140.5026  144.4519  161.4490 C.ar    1  UNL1        0.0945
     25 C         139.7397  144.0555  160.2199 C.ar    1  UNL1        0.0425
     26 C         140.4519  144.6244  159.0286 C.ar    1  UNL1        0.1215
     27 N         141.6550  145.3724  159.5215 N.ar    1  UNL1       -0.1710
     28 N         141.6864  145.2658  161.0174 N.ar    1  UNL1       -0.2742
     29 H         142.3648  145.6608  161.6115 H       1  UNL1        0.1890
@<TRIPOS>BOND
     1    12    11    1
     2    12    13    1
     3    13    14    1
     4    14    15    1
     5    15    16    1
     6    16    17    1
     7    17     1    1
     8     1     2   ar
     9     2     3   ar
    10     3    18    1
    11    18    19   ar
    12    19    20   ar
    13    20    21   ar
    14    21    22   ar
    15    22    23    1
    16     3     4   ar
    17     4     5   ar
    18     5     6   ar
    19     6     7   ar
    20     7     8   ar
    21     8    24    1
    22    24    25   ar
    23    25    26   ar
    24    26    27   ar
    25    27    28   ar
    26     8     9   ar
    27     9    10   ar
    28    17    12    1
    29    10     1   ar
    30    22    18   ar
    31     9     4   ar
    32    28    24   ar
    33    28    29    1
@<TRIPOS>MOLECULE
*****
 29 33 0 0 0
SMALL
GASTEIGER

@<TRIPOS>ATOM
      1 C         140.8127  142.1334  164.0421 C.ar    1  UNL1        0.1318
      2 C         141.3248  141.1168  163.0652 C.ar    1  UNL1        0.0358
      3 C         142.1044  139.9325  163.5546 C.ar    1  UNL1        0.0217
      4 C         142.3719  139.7647  165.0211 C.ar    1  UNL1        0.0223
      5 C         143.1515  138.5804  165.5105 C.ar    1  UNL1        0.0222
      6 C         143.4190  138.4127  166.9769 C.ar    1  UNL1        0.0990
      7 N         142.9069  139.4293  167.9538 N.ar    1  UNL1       -0.2408
      8 C         142.1274  140.6136  167.4643 C.ar    1  UNL1        0.1159
      9 C         141.8599  140.7813  165.9980 C.ar    1  UNL1        0.1018
     10 N         141.0802  141.9656  165.5084 N.ar    1  UNL1       -0.2291
     11 C         137.8159  142.1175  164.1796 C.3     1  UNL1        0.0241
     12 C         138.5348  143.3097  163.6213 C.3     1  UNL1        0.1038
     13 C         137.7552  144.4941  163.1318 C.3     1  UNL1        0.1618
     14 O         138.4741  145.6864  162.5735 O.3     1  UNL1       -0.3502
     15 C         139.9724  145.6943  162.5047 C.3     1  UNL1        0.1636
     16 C         140.7520  144.5100  162.9942 C.3     1  UNL1        0.1242
     17 N         140.0331  143.3177  163.5525 N.pl3   1  UNL1       -0.2898
     18 C         142.6165  138.9159  162.5777 C.ar    1  UNL1        0.0796
     19 C         144.0506  138.7113  162.1885 C.ar    1  UNL1        0.0412
     20 C         144.1048  137.5944  161.1887 C.ar    1  UNL1        0.1217
     21 N         142.7042  137.1086  160.9601 N.ar    1  UNL1       -0.1676
     22 N         141.7844  137.9253  161.8185 N.ar    1  UNL1       -0.2488
     23 C         140.2940  137.7774  161.9029 C.3     1  UNL1        0.1537
     24 C         141.6153  141.6302  168.4412 C.ar    1  UNL1        0.0945
     25 C         140.2016  141.7514  168.9279 C.ar    1  UNL1        0.0425
     26 C         140.1396  142.9002  169.8904 C.ar    1  UNL1        0.1215
     27 N         141.5150  143.4889  169.9986 N.ar    1  UNL1       -0.1710
     28 N         142.4270  142.7040  169.1030 N.ar    1  UNL1       -0.2742
     29 H         143.3893  142.8654  168.9724 H       1  UNL1        0.1890
@<TRIPOS>BOND
     1    12    11    1
     2    12    13    1
     3    13    14    1
     4    14    15    1
     5    15    16    1
     6    16    17    1
     7    17     1    1
     8     1     2   ar
     9     2     3   ar
    10     3    18    1
    11    18    19   ar
    12    19    20   ar
    13    20    21   ar
    14    21    22   ar
    15    22    23    1
    16     3     4   ar
    17     4     5   ar
    18     5     6   ar
    19     6     7   ar
    20     7     8   ar
    21     8    24    1
    22    24    25   ar
    23    25    26   ar
    24    26    27   ar
    25    27    28   ar
    26     8     9   ar
    27     9    10   ar
    28    17    12    1
    29    10     1   ar
    30    22    18   ar
    31     9     4   ar
    32    28    24   ar
    33    28    29    1
@<TRIPOS>MOLECULE
*****
 29 33 0 0 0
SMALL
GASTEIGER

@<TRIPOS>ATOM
      1 C         140.8809  142.0398  166.6607 C.ar    1  UNL1        0.1318
      2 C         140.3083  143.0795  165.7436 C.ar    1  UNL1        0.0358
      3 C         140.7861  143.1732  164.3248 C.ar    1  UNL1        0.0217
      4 C         141.8366  142.2271  163.8232 C.ar    1  UNL1        0.0223
      5 C         142.3144  142.3208  162.4044 C.ar    1  UNL1        0.0222
      6 C         143.3648  141.3748  161.9028 C.ar    1  UNL1        0.0990
      7 N         143.9374  140.3351  162.8200 N.ar    1  UNL1       -0.2408
      8 C         143.4595  140.2414  164.2387 C.ar    1  UNL1        0.1159
      9 C         142.4091  141.1874  164.7403 C.ar    1  UNL1        0.1018
     10 N         141.9313  141.0937  166.1591 N.ar    1  UNL1       -0.2291
     11 C         139.3019  139.6516  167.5572 C.3     1  UNL1        0.0241
     12 C         139.6136  140.7520  168.5277 C.3     1  UNL1        0.1038
     13 C         139.1357  140.6584  169.9465 C.3     1  UNL1        0.1618
     14 O         139.4474  141.7589  170.9170 O.3     1  UNL1       -0.3502
     15 C         140.2368  142.9529  170.4688 C.3     1  UNL1        0.1636
     16 C         140.7146  143.0465  169.0501 C.3     1  UNL1        0.1242
     17 N         140.4030  141.9461  168.0795 N.pl3   1  UNL1       -0.2898
     18 C         140.2135  144.2129  163.4077 C.ar    1  UNL1        0.0796
     19 C         140.9108  145.4556  162.9392 C.ar    1  UNL1        0.0412
     20 C         139.9714  146.2032  162.0400 C.ar    1  UNL1        0.1217
     21 N         138.6935  145.4226  161.9528 N.ar    1  UNL1       -0.1676
     22 N         138.8432  144.1925  162.7981 N.ar    1  UNL1       -0.2488
     23 C         137.8047  143.1288  162.9986 C.3     1  UNL1        0.1537
     24 C         144.0321  139.2016  165.1558 C.ar    1  UNL1        0.0945
     25 C         145.4504  138.7135  165.1590 C.ar    1  UNL1        0.0425
     26 C         145.5818  137.6777  166.2359 C.ar    1  UNL1        0.1215
     27 N         144.2446  137.5256  166.8984 N.ar    1  UNL1       -0.1710
     28 N         143.2869  138.4675  166.2309 N.ar    1  UNL1       -0.2742
     29 H         142.3361  138.5835  166.4584 H       1  UNL1        0.1890
@<TRIPOS>BOND
     1    12    11    1
     2    12    13    1
     3    13    14    1
     4    14    15    1
     5    15    16    1
     6    16    17    1
     7    17     1    1
     8     1     2   ar
     9     2     3   ar
    10     3    18    1
    11    18    19   ar
    12    19    20   ar
    13    20    21   ar
    14    21    22   ar
    15    22    23    1
    16     3     4   ar
    17     4     5   ar
    18     5     6   ar
    19     6     7   ar
    20     7     8   ar
    21     8    24    1
    22    24    25   ar
    23    25    26   ar
    24    26    27   ar
    25    27    28   ar
    26     8     9   ar
    27     9    10   ar
    28    17    12    1
    29    10     1   ar
    30    22    18   ar
    31     9     4   ar
    32    28    24   ar
    33    28    29    1
