@<TRIPOS>MOLECULE
*****
 34 39 0 0 0
SMALL
GASTEIGER

@<TRIPOS>ATOM
      1 C         140.6856  142.2479  163.5738 C.ar    1  UNL1        0.2358
      2 N         140.9853  142.3446  165.0404 N.ar    1  UNL1       -0.1935
      3 C         140.1780  141.2971  165.7484 C.ar    1  UNL1        0.1668
      4 C         140.0670  140.9247  167.1972 C.ar    1  UNL1        0.0382
      5 C         139.1574  139.8083  167.6170 C.ar    1  UNL1        0.0047
      6 C         138.3589  139.0643  166.5880 C.ar    1  UNL1        0.0208
      7 C         138.4699  139.4367  165.1393 C.ar    1  UNL1        0.1022
      8 N         139.3795  140.5531  164.7194 N.ar    1  UNL1       -0.2081
      9 N         139.6932  141.1407  163.3755 N.ar    1  UNL1       -0.1284
     10 C         140.8655  141.6687  168.2262 C.ar    1  UNL1        0.0328
     11 C         140.3280  142.9372  168.8195 C.ar    1  UNL1        0.0048
     12 C         141.1266  143.6812  169.8485 C.ar    1  UNL1        0.0321
     13 C         142.4627  143.1568  170.2841 C.ar    1  UNL1        0.1696
     14 F         143.2613  143.9007  171.3130 F       1  UNL1       -0.2017
     15 C         143.0002  141.8882  169.6908 C.ar    1  UNL1        0.1946
     16 F         144.3363  141.3638  170.1264 F       1  UNL1       -0.1994
     17 C         142.2016  141.1443  168.6618 C.ar    1  UNL1        0.1697
     18 F         142.7391  139.8757  168.0685 F       1  UNL1       -0.2017
     19 N         141.2749  143.1075  162.4949 N.pl3   1  UNL1       -0.3033
     20 H         140.8560  143.9691  162.2681 H       1  UNL1        0.1496
     21 N         141.3373  143.0057  162.3931 N.pl3   1  UNL1       -0.2869
     22 C         142.6396  143.7218  162.5964 C.3     1  UNL1        0.0943
     23 C         143.8672  143.2686  161.8630 C.3     1  UNL1        0.0379
     24 C         144.7890  142.5013  160.9622 C.3     1  UNL1        0.0035
     25 C         143.9940  141.4128  160.3040 C.3     1  UNL1        0.0035
     26 C         142.5808  141.5074  160.7981 C.3     1  UNL1        0.0379
     27 C         141.2626  141.8364  161.4564 C.3     1  UNL1        0.0943
     28 C         142.5024  142.6543  161.7616 C.3     1  UNL1        0.0750
     29 C         138.1650  145.1855  166.0075 C.3     1  UNL1        0.0744
     30 C         138.6516  144.4608  164.7878 C.ar    1  UNL1        0.1494
     31 N         137.7899  143.8515  163.7219 N.ar    1  UNL1       -0.1917
     32 S         138.6912  143.2322  162.6951 S.2     1  UNL1        0.0491
     33 C         140.1098  143.4588  163.1264 C.ar    1  UNL1        0.1818
     34 N         140.0854  144.2182  164.4198 N.ar    1  UNL1       -0.2078
@<TRIPOS>BOND
     1    29    30    1
     2    30    31   ar
     3    31    32   ar
     4    32    33   ar
     5    33    21    1
     6    21    22    1
     7    22    23    1
     8    23    24    1
     9    24    25    1
    10    25    26    1
    11    26    27    1
    12    26    28    1
    13    28    19    1
    14    19     1    1
    15     1     2   ar
    16     2     3   ar
    17     3     4   ar
    18     4    10    1
    19    10    11   ar
    20    11    12   ar
    21    12    13   ar
    22    13    14    1
    23    13    15   ar
    24    15    16    1
    25    15    17   ar
    26    17    18    1
    27     4     5   ar
    28     5     6   ar
    29     6     7   ar
    30     7     8   ar
    31     8     9   ar
    32    33    34   ar
    33    34    30   ar
    34    27    21    1
    35     9     1   ar
    36    28    23    1
    37     8     3   ar
    38    17    10   ar
    39    19    20    1
@<TRIPOS>MOLECULE
*****
 34 39 0 0 0
SMALL
GASTEIGER

@<TRIPOS>ATOM
      1 C         140.2420  141.4924  163.8113 C.ar    1  UNL1        0.2358
      2 N         140.4892  141.4791  165.2907 N.ar    1  UNL1       -0.1935
      3 C         141.6203  140.5322  165.5631 C.ar    1  UNL1        0.1668
      4 C         142.2972  140.1169  166.8356 C.ar    1  UNL1        0.0382
      5 C         143.4259  139.1298  166.7972 C.ar    1  UNL1        0.0047
      6 C         143.8777  138.5579  165.4862 C.ar    1  UNL1        0.0208
      7 C         143.2008  138.9732  164.2136 C.ar    1  UNL1        0.1022
      8 N         142.0721  139.9604  164.2521 N.ar    1  UNL1       -0.2081
      9 N         141.2203  140.5538  163.1694 N.ar    1  UNL1       -0.1284
     10 C         141.8453  140.6888  168.1467 C.ar    1  UNL1        0.0328
     11 C         140.7647  140.0050  168.9307 C.ar    1  UNL1        0.0048
     12 C         140.3129  140.5769  170.2417 C.ar    1  UNL1        0.0321
     13 C         140.9416  141.8326  170.7688 C.ar    1  UNL1        0.1696
     14 F         140.4898  142.4045  172.0798 F       1  UNL1       -0.2017
     15 C         142.0223  142.5164  169.9847 C.ar    1  UNL1        0.1946
     16 F         142.6511  143.7722  170.5118 F       1  UNL1       -0.1994
     17 C         142.4741  141.9445  168.6738 C.ar    1  UNL1        0.1697
     18 F         143.5548  142.6284  167.8897 F       1  UNL1       -0.2017
     19 N         139.1995  142.3021  163.0987 N.pl3   1  UNL1       -0.3033
     20 H         138.2752  141.9689  163.0362 H       1  UNL1        0.1496
     21 N         139.2766  142.3770  162.9844 N.pl3   1  UNL1       -0.2869
     22 C         138.7760  143.6543  163.5910 C.3     1  UNL1        0.0943
     23 C         139.1418  144.9716  162.9737 C.3     1  UNL1        0.0379
     24 C         139.7336  146.0036  162.0602 C.3     1  UNL1        0.0035
     25 C         140.5228  145.2893  161.0034 C.3     1  UNL1        0.0035
     26 C         140.4188  143.8157  161.2638 C.3     1  UNL1        0.0379
     27 C         140.1430  142.4170  161.7605 C.3     1  UNL1        0.0943
     28 C         139.5653  143.6194  162.4816 C.3     1  UNL1        0.0750
     29 C         137.8399  138.7012  166.4922 C.3     1  UNL1        0.0744
     30 C         138.2504  139.3701  165.2139 C.ar    1  UNL1        0.1494
     31 N         138.4453  138.6951  163.8887 N.ar    1  UNL1       -0.1917
     32 S         138.8534  139.7393  162.8922 S.2     1  UNL1        0.0491
     33 C         138.9108  141.0597  163.6016 C.ar    1  UNL1        0.1818
     34 N         138.5381  140.8315  165.0365 N.ar    1  UNL1       -0.2078
@<TRIPOS>BOND
     1    29    30    1
     2    30    31   ar
     3    31    32   ar
     4    32    33   ar
     5    33    21    1
     6    21    22    1
     7    22    23    1
     8    23    24    1
     9    24    25    1
    10    25    26    1
    11    26    27    1
    12    26    28    1
    13    28    19    1
    14    19     1    1
    15     1     2   ar
    16     2     3   ar
    17     3     4   ar
    18     4    10    1
    19    10    11   ar
    20    11    12   ar
    21    12    13   ar
    22    13    14    1
    23    13    15   ar
    24    15    16    1
    25    15    17   ar
    26    17    18    1
    27     4     5   ar
    28     5     6   ar
    29     6     7   ar
    30     7     8   ar
    31     8     9   ar
    32    33    34   ar
    33    34    30   ar
    34    27    21    1
    35     9     1   ar
    36    28    23    1
    37     8     3   ar
    38    17    10   ar
    39    19    20    1
@<TRIPOS>MOLECULE
*****
 34 39 0 0 0
SMALL
GASTEIGER

@<TRIPOS>ATOM
      1 C         140.1175  141.8877  163.3772 C.ar    1  UNL1        0.2358
      2 N         140.3368  141.5827  164.8294 N.ar    1  UNL1       -0.1935
      3 C         141.6591  142.1663  165.2310 C.ar    1  UNL1        0.1668
      4 C         142.3959  142.1776  166.5375 C.ar    1  UNL1        0.0382
      5 C         143.7306  142.8544  166.6400 C.ar    1  UNL1        0.0047
      6 C         144.3284  143.5200  165.4360 C.ar    1  UNL1        0.0208
      7 C         143.5915  143.5087  164.1295 C.ar    1  UNL1        0.1022
      8 N         142.2569  142.8319  164.0270 N.ar    1  UNL1       -0.2081
      9 N         141.3041  142.6597  162.8813 N.ar    1  UNL1       -0.1284
     10 C         141.7981  141.5120  167.7415 C.ar    1  UNL1        0.0328
     11 C         142.3026  140.1708  168.1850 C.ar    1  UNL1        0.0048
     12 C         141.7048  139.5052  169.3890 C.ar    1  UNL1        0.0321
     13 C         140.6024  140.1808  170.1495 C.ar    1  UNL1        0.1696
     14 F         140.0046  139.5152  171.3535 F       1  UNL1       -0.2017
     15 C         140.0979  141.5220  169.7060 C.ar    1  UNL1        0.1946
     16 F         138.9955  142.1976  170.4664 F       1  UNL1       -0.1994
     17 C         140.6957  142.1876  168.5020 C.ar    1  UNL1        0.1697
     18 F         140.1912  143.5288  168.0585 F       1  UNL1       -0.2017
     19 N         138.9214  141.4904  162.5637 N.pl3   1  UNL1       -0.3033
     20 H         138.1620  142.1098  162.4700 H       1  UNL1        0.1496
     21 N         138.9730  141.4007  162.4457 N.pl3   1  UNL1       -0.2869
     22 C         138.1181  140.3047  163.0096 C.3     1  UNL1        0.0943
     23 C         138.0792  138.9635  162.3389 C.3     1  UNL1        0.0379
     24 C         138.3402  137.8398  161.3801 C.3     1  UNL1        0.0035
     25 C         139.3048  138.3311  160.3418 C.3     1  UNL1        0.0035
     26 C         139.6399  139.7584  160.6588 C.3     1  UNL1        0.0379
     27 C         139.7889  141.1555  161.2111 C.3     1  UNL1        0.0943
     28 C         138.8825  140.1493  161.8930 C.3     1  UNL1        0.0750
     29 C         138.4507  145.2369  166.0360 C.3     1  UNL1        0.0744
     30 C         138.7719  144.5051  164.7667 C.ar    1  UNL1        0.1494
     31 N         139.3719  145.1060  163.5302 N.ar    1  UNL1       -0.1917
     32 S         139.5202  144.0162  162.5103 S.2     1  UNL1        0.0491
     33 C         139.0119  142.7418  163.1164 C.ar    1  UNL1        0.1818
     34 N         138.5494  143.0440  164.5110 N.ar    1  UNL1       -0.2078
@<TRIPOS>BOND
     1    29    30    1
     2    30    31   ar
     3    31    32   ar
     4    32    33   ar
     5    33    21    1
     6    21    22    1
     7    22    23    1
     8    23    24    1
     9    24    25    1
    10    25    26    1
    11    26    27    1
    12    26    28    1
    13    28    19    1
    14    19     1    1
    15     1     2   ar
    16     2     3   ar
    17     3     4   ar
    18     4    10    1
    19    10    11   ar
    20    11    12   ar
    21    12    13   ar
    22    13    14    1
    23    13    15   ar
    24    15    16    1
    25    15    17   ar
    26    17    18    1
    27     4     5   ar
    28     5     6   ar
    29     6     7   ar
    30     7     8   ar
    31     8     9   ar
    32    33    34   ar
    33    34    30   ar
    34    27    21    1
    35     9     1   ar
    36    28    23    1
    37     8     3   ar
    38    17    10   ar
    39    19    20    1
@<TRIPOS>MOLECULE
*****
 34 39 0 0 0
SMALL
GASTEIGER

@<TRIPOS>ATOM
      1 C         140.1523  141.8102  163.3541 C.ar    1  UNL1        0.2358
      2 N         140.2233  141.8735  164.8511 N.ar    1  UNL1       -0.1935
      3 C         141.3435  140.9825  165.3001 C.ar    1  UNL1        0.1668
      4 C         141.8780  140.6509  166.6618 C.ar    1  UNL1        0.0382
      5 C         143.0337  139.7054  166.8041 C.ar    1  UNL1        0.0047
      6 C         143.6548  139.0914  165.5846 C.ar    1  UNL1        0.0208
      7 C         143.1203  139.4229  164.2229 C.ar    1  UNL1        0.1022
      8 N         141.9646  140.3685  164.0806 N.ar    1  UNL1       -0.2081
      9 N         141.2285  140.8800  162.8779 N.ar    1  UNL1       -0.1284
     10 C         141.2568  141.2650  167.8813 C.ar    1  UNL1        0.0328
     11 C         141.8774  142.4774  168.5095 C.ar    1  UNL1        0.0048
     12 C         141.2562  143.0915  169.7290 C.ar    1  UNL1        0.0321
     13 C         140.0143  142.4930  170.3202 C.ar    1  UNL1        0.1696
     14 F         139.3931  143.1070  171.5397 F       1  UNL1       -0.2017
     15 C         139.3937  141.2804  169.6920 C.ar    1  UNL1        0.1946
     16 F         138.1518  140.6819  170.2832 F       1  UNL1       -0.1994
     17 C         140.0149  140.6665  168.4725 C.ar    1  UNL1        0.1697
     18 F         139.3943  139.4539  167.8443 F       1  UNL1       -0.2017
     19 N         139.1764  142.5475  162.4857 N.pl3   1  UNL1       -0.3033
     20 H         138.3040  142.1439  162.2731 H       1  UNL1        0.1496
     21 N         139.1879  142.7016  162.5132 N.pl3   1  UNL1       -0.2869
     22 C         139.6617  142.8394  161.0967 C.3     1  UNL1        0.0943
     23 C         140.0151  144.1918  160.5523 C.3     1  UNL1        0.0379
     24 C         140.2452  145.6699  160.4428 C.3     1  UNL1        0.0035
     25 C         139.9021  146.2916  161.7641 C.3     1  UNL1        0.0035
     26 C         139.4599  145.1975  162.6902 C.3     1  UNL1        0.0379
     27 C         139.0674  143.9161  163.3853 C.3     1  UNL1        0.0943
     28 C         139.5298  143.8998  161.9413 C.3     1  UNL1        0.0750
     29 C         138.7673  137.4686  163.0779 C.3     1  UNL1        0.0744
     30 C         138.6412  138.9440  163.3172 C.ar    1  UNL1        0.1494
     31 N         137.9402  139.5928  164.4738 N.ar    1  UNL1       -0.1917
     32 S         138.0597  141.0794  164.3133 S.2     1  UNL1        0.0491
     33 C         138.8345  141.3493  163.0576 C.ar    1  UNL1        0.1818
     34 N         139.1939  140.0295  162.4420 N.ar    1  UNL1       -0.2078
@<TRIPOS>BOND
     1    29    30    1
     2    30    31   ar
     3    31    32   ar
     4    32    33   ar
     5    33    21    1
     6    21    22    1
     7    22    23    1
     8    23    24    1
     9    24    25    1
    10    25    26    1
    11    26    27    1
    12    26    28    1
    13    28    19    1
    14    19     1    1
    15     1     2   ar
    16     2     3   ar
    17     3     4   ar
    18     4    10    1
    19    10    11   ar
    20    11    12   ar
    21    12    13   ar
    22    13    14    1
    23    13    15   ar
    24    15    16    1
    25    15    17   ar
    26    17    18    1
    27     4     5   ar
    28     5     6   ar
    29     6     7   ar
    30     7     8   ar
    31     8     9   ar
    32    33    34   ar
    33    34    30   ar
    34    27    21    1
    35     9     1   ar
    36    28    23    1
    37     8     3   ar
    38    17    10   ar
    39    19    20    1
@<TRIPOS>MOLECULE
*****
 34 39 0 0 0
SMALL
GASTEIGER

@<TRIPOS>ATOM
      1 C         140.7498  141.5637  163.7210 C.ar    1  UNL1        0.2358
      2 N         141.0348  141.8102  165.1729 N.ar    1  UNL1       -0.1935
      3 C         140.1362  140.9199  165.9792 C.ar    1  UNL1        0.1668
      4 C         139.9746  140.7317  167.4585 C.ar    1  UNL1        0.0382
      5 C         138.9728  139.7469  167.9843 C.ar    1  UNL1        0.0047
      6 C         138.1326  138.9503  167.0307 C.ar    1  UNL1        0.0208
      7 C         138.2942  139.1384  165.5514 C.ar    1  UNL1        0.1022
      8 N         139.2960  140.1232  165.0256 N.ar    1  UNL1       -0.2081
      9 N         139.6752  140.5211  163.6300 N.ar    1  UNL1       -0.1284
     10 C         140.8149  141.5284  168.4121 C.ar    1  UNL1        0.0328
     11 C         140.3154  142.8432  168.9336 C.ar    1  UNL1        0.0048
     12 C         141.1557  143.6399  169.8872 C.ar    1  UNL1        0.0321
     13 C         142.4954  143.1218  170.3193 C.ar    1  UNL1        0.1696
     14 F         143.3357  143.9184  171.2728 F       1  UNL1       -0.2017
     15 C         142.9949  141.8070  169.7978 C.ar    1  UNL1        0.1946
     16 F         144.3346  141.2889  170.2298 F       1  UNL1       -0.1994
     17 C         142.1546  141.0104  168.8442 C.ar    1  UNL1        0.1697
     18 F         142.6541  139.6955  168.3227 F       1  UNL1       -0.2017
     19 N         141.4216  142.2409  162.5633 N.pl3   1  UNL1       -0.3033
     20 H         142.1987  141.8196  162.1299 H       1  UNL1        0.1496
     21 N         141.3999  142.3934  162.5931 N.pl3   1  UNL1       -0.2869
     22 C         140.7894  142.4938  161.2267 C.3     1  UNL1        0.0943
     23 C         140.2770  143.8130  160.7293 C.3     1  UNL1        0.0379
     24 C         139.9161  145.2670  160.6549 C.3     1  UNL1        0.0035
     25 C         140.3253  145.9127  161.9455 C.3     1  UNL1        0.0035
     26 C         140.9391  144.8576  162.8175 C.3     1  UNL1        0.0379
     27 C         141.4981  143.6122  163.4621 C.3     1  UNL1        0.0943
     28 C         140.9092  143.5600  162.0658 C.3     1  UNL1        0.0750
     29 C         143.9459  138.7438  165.4353 C.3     1  UNL1        0.0744
     30 C         143.0826  139.3968  164.3970 C.ar    1  UNL1        0.1494
     31 N         142.3189  138.6922  163.3152 N.ar    1  UNL1       -0.1917
     32 S         141.5956  139.7290  162.5078 S.2     1  UNL1        0.0491
     33 C         141.9123  141.0744  163.0906 C.ar    1  UNL1        0.1818
     34 N         142.8313  140.8691  164.2582 N.ar    1  UNL1       -0.2078
@<TRIPOS>BOND
     1    29    30    1
     2    30    31   ar
     3    31    32   ar
     4    32    33   ar
     5    33    21    1
     6    21    22    1
     7    22    23    1
     8    23    24    1
     9    24    25    1
    10    25    26    1
    11    26    27    1
    12    26    28    1
    13    28    19    1
    14    19     1    1
    15     1     2   ar
    16     2     3   ar
    17     3     4   ar
    18     4    10    1
    19    10    11   ar
    20    11    12   ar
    21    12    13   ar
    22    13    14    1
    23    13    15   ar
    24    15    16    1
    25    15    17   ar
    26    17    18    1
    27     4     5   ar
    28     5     6   ar
    29     6     7   ar
    30     7     8   ar
    31     8     9   ar
    32    33    34   ar
    33    34    30   ar
    34    27    21    1
    35     9     1   ar
    36    28    23    1
    37     8     3   ar
    38    17    10   ar
    39    19    20    1
@<TRIPOS>MOLECULE
*****
 34 39 0 0 0
SMALL
GASTEIGER

@<TRIPOS>ATOM
      1 C         141.6633  141.7640  162.4068 C.ar    1  UNL1        0.2358
      2 N         141.5011  141.3102  163.8272 N.ar    1  UNL1       -0.1935
      3 C         140.8491  139.9593  163.8106 C.ar    1  UNL1        0.1668
      4 C         140.4436  139.0270  164.9135 C.ar    1  UNL1        0.0382
      5 C         139.7973  137.7137  164.5857 C.ar    1  UNL1        0.0047
      6 C         139.5565  137.3327  163.1551 C.ar    1  UNL1        0.0208
      7 C         139.9620  138.2651  162.0522 C.ar    1  UNL1        0.1022
      8 N         140.6083  139.5783  162.3800 N.ar    1  UNL1       -0.2081
      9 N         141.1115  140.6937  161.5123 N.ar    1  UNL1       -0.1284
     10 C         140.6844  139.4080  166.3442 C.ar    1  UNL1        0.0328
     11 C         142.0861  139.4974  166.8708 C.ar    1  UNL1        0.0048
     12 C         142.3269  139.8784  168.3016 C.ar    1  UNL1        0.0321
     13 C         141.1660  140.1701  169.2056 C.ar    1  UNL1        0.1696
     14 F         141.4068  140.5511  170.6363 F       1  UNL1       -0.2017
     15 C         139.7643  140.0807  168.6789 C.ar    1  UNL1        0.1946
     16 F         138.6034  140.3724  169.5830 F       1  UNL1       -0.1994
     17 C         139.5236  139.6997  167.2483 C.ar    1  UNL1        0.1697
     18 F         138.1218  139.6103  166.7216 F       1  UNL1       -0.2017
     19 N         142.2706  143.0606  161.9592 N.pl3   1  UNL1       -0.3033
     20 H         143.2436  143.1280  161.8251 H       1  UNL1        0.1496
     21 N         142.1905  143.1800  162.0220 N.pl3   1  UNL1       -0.2869
     22 C         141.8029  143.5532  160.6218 C.3     1  UNL1        0.0943
     23 C         140.9278  144.7470  160.3788 C.3     1  UNL1        0.0379
     24 C         140.0776  145.9621  160.6038 C.3     1  UNL1        0.0035
     25 C         140.0199  146.2204  162.0803 C.3     1  UNL1        0.0035
     26 C         140.8344  145.1649  162.7678 C.3     1  UNL1        0.0379
     27 C         141.7029  144.0006  163.1792 C.3     1  UNL1        0.0943
     28 C         141.3955  144.2543  161.7162 C.3     1  UNL1        0.0750
     29 C         145.1480  139.5285  164.4303 C.3     1  UNL1        0.0744
     30 C         144.4250  140.3079  163.3720 C.ar    1  UNL1        0.1494
     31 N         144.3997  139.9908  161.9062 N.ar    1  UNL1       -0.1917
     32 S         143.5595  141.0281  161.2221 S.2     1  UNL1        0.0491
     33 C         143.0656  141.9863  162.2651 C.ar    1  UNL1        0.1818
     34 N         143.6006  141.5411  163.5939 N.ar    1  UNL1       -0.2078
@<TRIPOS>BOND
     1    29    30    1
     2    30    31   ar
     3    31    32   ar
     4    32    33   ar
     5    33    21    1
     6    21    22    1
     7    22    23    1
     8    23    24    1
     9    24    25    1
    10    25    26    1
    11    26    27    1
    12    26    28    1
    13    28    19    1
    14    19     1    1
    15     1     2   ar
    16     2     3   ar
    17     3     4   ar
    18     4    10    1
    19    10    11   ar
    20    11    12   ar
    21    12    13   ar
    22    13    14    1
    23    13    15   ar
    24    15    16    1
    25    15    17   ar
    26    17    18    1
    27     4     5   ar
    28     5     6   ar
    29     6     7   ar
    30     7     8   ar
    31     8     9   ar
    32    33    34   ar
    33    34    30   ar
    34    27    21    1
    35     9     1   ar
    36    28    23    1
    37     8     3   ar
    38    17    10   ar
    39    19    20    1
@<TRIPOS>MOLECULE
*****
 34 39 0 0 0
SMALL
GASTEIGER

@<TRIPOS>ATOM
      1 C         141.8468  140.1441  165.6535 C.ar    1  UNL1        0.2358
      2 N         141.6254  141.3564  164.7985 N.ar    1  UNL1       -0.1935
      3 C         142.9222  141.6896  164.1221 C.ar    1  UNL1        0.1668
      4 C         143.3038  142.7795  163.1647 C.ar    1  UNL1        0.0382
      5 C         144.7081  142.8629  162.6443 C.ar    1  UNL1        0.0047
      6 C         145.7308  141.8564  163.0813 C.ar    1  UNL1        0.0208
      7 C         145.3493  140.7666  164.0387 C.ar    1  UNL1        0.1022
      8 N         143.9449  140.6832  164.5591 N.ar    1  UNL1       -0.2081
      9 N         143.2803  139.7280  165.5056 N.ar    1  UNL1       -0.1284
     10 C         142.2809  143.7859  162.7276 C.ar    1  UNL1        0.0328
     11 C         141.8527  144.8756  163.6652 C.ar    1  UNL1        0.0048
     12 C         140.8298  145.8821  163.2282 C.ar    1  UNL1        0.0321
     13 C         140.2353  145.7988  161.8536 C.ar    1  UNL1        0.1696
     14 F         139.2125  146.8051  161.4165 F       1  UNL1       -0.2017
     15 C         140.6636  144.7090  160.9160 C.ar    1  UNL1        0.1946
     16 F         140.0690  144.6256  159.5414 F       1  UNL1       -0.1994
     17 C         141.6864  143.7026  161.3530 C.ar    1  UNL1        0.1697
     18 F         142.1146  142.6128  160.4154 F       1  UNL1       -0.2017
     19 N         140.8156  139.4666  166.5068 N.pl3   1  UNL1       -0.3033
     20 H         140.2801  138.7274  166.1381 H       1  UNL1        0.1496
     21 N         140.8805  139.4979  166.6462 N.pl3   1  UNL1       -0.2869
     22 C         139.5008  139.8456  167.1213 C.3     1  UNL1        0.0943
     23 C         139.2858  140.2945  168.5363 C.3     1  UNL1        0.0379
     24 C         139.5351  140.6775  169.9650 C.3     1  UNL1        0.0035
     25 C         141.0040  140.5351  170.2335 C.3     1  UNL1        0.0035
     26 C         141.6625  140.0642  168.9706 C.3     1  UNL1        0.0379
     27 C         142.0450  139.5991  167.5862 C.3     1  UNL1        0.0943
     28 C         140.6006  139.9155  167.9218 C.3     1  UNL1        0.0750
     29 C         140.6314  139.1966  161.3806 C.3     1  UNL1        0.0744
     30 C         140.9811  138.9105  162.8109 C.ar    1  UNL1        0.1494
     31 N         141.8720  137.8060  163.2967 N.ar    1  UNL1       -0.1917
     32 S         141.9428  137.8916  164.7926 S.2     1  UNL1        0.0491
     33 C         141.0955  139.0490  165.2312 C.ar    1  UNL1        0.1818
     34 N         140.5012  139.6788  164.0064 N.ar    1  UNL1       -0.2078
@<TRIPOS>BOND
     1    29    30    1
     2    30    31   ar
     3    31    32   ar
     4    32    33   ar
     5    33    21    1
     6    21    22    1
     7    22    23    1
     8    23    24    1
     9    24    25    1
    10    25    26    1
    11    26    27    1
    12    26    28    1
    13    28    19    1
    14    19     1    1
    15     1     2   ar
    16     2     3   ar
    17     3     4   ar
    18     4    10    1
    19    10    11   ar
    20    11    12   ar
    21    12    13   ar
    22    13    14    1
    23    13    15   ar
    24    15    16    1
    25    15    17   ar
    26    17    18    1
    27     4     5   ar
    28     5     6   ar
    29     6     7   ar
    30     7     8   ar
    31     8     9   ar
    32    33    34   ar
    33    34    30   ar
    34    27    21    1
    35     9     1   ar
    36    28    23    1
    37     8     3   ar
    38    17    10   ar
    39    19    20    1
@<TRIPOS>MOLECULE
*****
 34 39 0 0 0
SMALL
GASTEIGER

@<TRIPOS>ATOM
      1 C         141.7197  139.7581  166.0553 C.ar    1  UNL1        0.2358
      2 N         141.2482  140.7597  165.0431 N.ar    1  UNL1       -0.1935
      3 C         140.8115  140.0110  163.8188 C.ar    1  UNL1        0.1668
      4 C         140.2563  140.4735  162.5043 C.ar    1  UNL1        0.0382
      5 C         139.9028  139.4718  161.4453 C.ar    1  UNL1        0.0047
      6 C         140.1045  138.0075  161.7008 C.ar    1  UNL1        0.0208
      7 C         140.6597  137.5451  163.0153 C.ar    1  UNL1        0.1022
      8 N         141.0132  138.5468  164.0743 N.ar    1  UNL1       -0.2081
      9 N         141.5744  138.3905  165.4565 N.ar    1  UNL1       -0.1284
     10 C         140.0547  141.9378  162.2488 C.ar    1  UNL1        0.0328
     11 C         141.1045  142.7237  161.5207 C.ar    1  UNL1        0.0048
     12 C         140.9029  144.1880  161.2652 C.ar    1  UNL1        0.0321
     13 C         139.6513  144.8664  161.7379 C.ar    1  UNL1        0.1696
     14 F         139.4496  146.3306  161.4824 F       1  UNL1       -0.2017
     15 C         138.6015  144.0804  162.4661 C.ar    1  UNL1        0.1946
     16 F         137.3499  144.7588  162.9388 F       1  UNL1       -0.1994
     17 C         138.8032  142.6162  162.7215 C.ar    1  UNL1        0.1697
     18 F         137.7533  141.8303  163.4497 F       1  UNL1       -0.2017
     19 N         142.2443  140.0695  167.4257 N.pl3   1  UNL1       -0.3033
     20 H         143.2094  140.2063  167.5639 H       1  UNL1        0.1496
     21 N         142.1105  140.1296  167.4815 N.pl3   1  UNL1       -0.2869
     22 C         142.4099  139.4045  168.7600 C.3     1  UNL1        0.0943
     23 C         141.4640  139.5074  169.9197 C.3     1  UNL1        0.0379
     24 C         140.2890  139.8823  170.7734 C.3     1  UNL1        0.0035
     25 C         139.3973  140.7789  169.9666 C.3     1  UNL1        0.0035
     26 C         140.0212  140.9582  168.6143 C.3     1  UNL1        0.0379
     27 C         140.8653  140.9576  167.3626 C.3     1  UNL1        0.0943
     28 C         141.2986  140.1723  168.5854 C.3     1  UNL1        0.0750
     29 C         145.1181  141.3862  163.3275 C.3     1  UNL1        0.0744
     30 C         144.4387  140.6043  164.4124 C.ar    1  UNL1        0.1494
     31 N         144.5847  139.1325  164.6620 N.ar    1  UNL1       -0.1917
     32 S         143.7303  138.7755  165.8421 S.2     1  UNL1        0.0491
     33 C         143.0563  140.0267  166.3218 C.ar    1  UNL1        0.1818
     34 N         143.4942  141.1570  165.4382 N.ar    1  UNL1       -0.2078
@<TRIPOS>BOND
     1    29    30    1
     2    30    31   ar
     3    31    32   ar
     4    32    33   ar
     5    33    21    1
     6    21    22    1
     7    22    23    1
     8    23    24    1
     9    24    25    1
    10    25    26    1
    11    26    27    1
    12    26    28    1
    13    28    19    1
    14    19     1    1
    15     1     2   ar
    16     2     3   ar
    17     3     4   ar
    18     4    10    1
    19    10    11   ar
    20    11    12   ar
    21    12    13   ar
    22    13    14    1
    23    13    15   ar
    24    15    16    1
    25    15    17   ar
    26    17    18    1
    27     4     5   ar
    28     5     6   ar
    29     6     7   ar
    30     7     8   ar
    31     8     9   ar
    32    33    34   ar
    33    34    30   ar
    34    27    21    1
    35     9     1   ar
    36    28    23    1
    37     8     3   ar
    38    17    10   ar
    39    19    20    1
@<TRIPOS>MOLECULE
*****
 34 39 0 0 0
SMALL
GASTEIGER

@<TRIPOS>ATOM
      1 C         141.8841  140.3558  166.1984 C.ar    1  UNL1        0.2358
      2 N         141.2927  141.3558  165.2496 N.ar    1  UNL1       -0.1935
      3 C         140.3142  140.6367  164.3689 C.ar    1  UNL1        0.1668
      4 C         139.4337  141.1106  163.2508 C.ar    1  UNL1        0.0382
      5 C         138.5398  140.1401  162.5373 C.ar    1  UNL1        0.0047
      6 C         138.5265  138.6958  162.9418 C.ar    1  UNL1        0.0208
      7 C         139.4071  138.2219  164.0598 C.ar    1  UNL1        0.1022
      8 N         140.3010  139.1923  164.7734 N.ar    1  UNL1       -0.2081
      9 N         141.2712  139.0187  165.9041 N.ar    1  UNL1       -0.1284
     10 C         139.4470  142.5550  162.8464 C.ar    1  UNL1        0.0328
     11 C         138.3900  143.4873  163.3596 C.ar    1  UNL1        0.0048
     12 C         138.4033  144.9318  162.9551 C.ar    1  UNL1        0.0321
     13 C         139.4737  145.4438  162.0374 C.ar    1  UNL1        0.1696
     14 F         139.4871  146.8881  161.6329 F       1  UNL1       -0.2017
     15 C         140.5307  144.5113  161.5242 C.ar    1  UNL1        0.1946
     16 F         141.6011  145.0233  160.6065 F       1  UNL1       -0.1994
     17 C         140.5174  143.0670  161.9287 C.ar    1  UNL1        0.1697
     18 F         141.5744  142.1346  161.4154 F       1  UNL1       -0.2017
     19 N         142.9086  140.6424  167.2559 N.pl3   1  UNL1       -0.3033
     20 H         143.8674  140.5623  167.0471 H       1  UNL1        0.1496
     21 N         142.8555  140.5965  167.3962 N.pl3   1  UNL1       -0.2869
     22 C         142.8637  142.0449  167.7861 C.3     1  UNL1        0.0943
     23 C         142.4274  142.4537  169.1619 C.3     1  UNL1        0.0379
     24 C         141.9317  142.3987  170.5765 C.3     1  UNL1        0.0035
     25 C         141.6703  140.9623  170.9205 C.3     1  UNL1        0.0035
     26 C         142.0045  140.1295  169.7185 C.3     1  UNL1        0.0379
     27 C         142.4109  139.5569  168.3820 C.3     1  UNL1        0.0943
     28 C         142.4724  141.0513  168.6316 C.3     1  UNL1        0.0750
     29 C         144.3670  140.7952  162.3410 C.3     1  UNL1        0.0744
     30 C         143.9865  140.2790  163.6969 C.ar    1  UNL1        0.1494
     31 N         143.9396  138.8379  164.1104 N.ar    1  UNL1       -0.1917
     32 S         143.5103  138.7814  165.5465 S.2     1  UNL1        0.0491
     33 C         143.2917  140.1876  166.0206 C.ar    1  UNL1        0.1818
     34 N         143.5861  141.1132  164.8774 N.ar    1  UNL1       -0.2078
@<TRIPOS>BOND
     1    29    30    1
     2    30    31   ar
     3    31    32   ar
     4    32    33   ar
     5    33    21    1
     6    21    22    1
     7    22    23    1
     8    23    24    1
     9    24    25    1
    10    25    26    1
    11    26    27    1
    12    26    28    1
    13    28    19    1
    14    19     1    1
    15     1     2   ar
    16     2     3   ar
    17     3     4   ar
    18     4    10    1
    19    10    11   ar
    20    11    12   ar
    21    12    13   ar
    22    13    14    1
    23    13    15   ar
    24    15    16    1
    25    15    17   ar
    26    17    18    1
    27     4     5   ar
    28     5     6   ar
    29     6     7   ar
    30     7     8   ar
    31     8     9   ar
    32    33    34   ar
    33    34    30   ar
    34    27    21    1
    35     9     1   ar
    36    28    23    1
    37     8     3   ar
    38    17    10   ar
    39    19    20    1
