@<TRIPOS>MOLECULE
*****
 38 42 0 0 0
SMALL
GASTEIGER

@<TRIPOS>ATOM
      1 C         140.8954  144.0328  161.3447 C.ar    1  UNL1        0.2219
      2 N         140.3170  145.4101  161.4813 N.ar    1  UNL1       -0.2096
      3 C         139.5543  145.7840  162.7177 C.ar    1  UNL1        0.1329
      4 C         139.3701  144.7807  163.8174 C.ar    1  UNL1        0.1768
      5 F         138.6074  145.1546  165.0538 F       1  UNL1       -0.2009
      6 C         139.9485  143.4035  163.6808 C.ar    1  UNL1        0.1132
      7 N         140.7111  143.0295  162.4445 N.ar    1  UNL1       -0.2112
      8 C         139.7642  142.4001  164.7806 C.ar    1  UNL1        0.0238
      9 C         139.0619  141.1040  164.5035 C.ar    1  UNL1        0.0329
     10 C         138.8777  140.1008  165.6032 C.ar    1  UNL1        0.1591
     11 F         138.1754  138.8046  165.3261 F       1  UNL1       -0.2025
     12 C         139.3957  140.3937  166.9801 C.ar    1  UNL1        0.1256
     13 N         139.3619  139.6030  168.2544 N.ar    1  UNL1       -0.2287
     14 C         140.0433  140.4105  169.3191 C.ar    1  UNL1        0.1207
     15 C         140.2360  140.0004  170.7491 C.3     1  UNL1        0.0718
     16 N         140.4982  141.7002  168.7028 N.ar    1  UNL1       -0.3167
     17 C         140.0980  141.6898  167.2573 C.ar    1  UNL1        0.0808
     18 C         140.2822  142.6930  166.1575 C.ar    1  UNL1        0.0205
     19 C         141.2257  142.8062  169.4083 C.3     1  UNL1        0.0867
     20 C         140.4709  144.0043  169.9030 C.3     1  UNL1        0.0245
     21 C         142.7079  142.7141  169.6189 C.3     1  UNL1        0.0245
     22 N         141.6580  143.6589  160.1084 N.pl3   1  UNL1       -0.2680
     23 H         142.3788  142.9901  160.1581 H       1  UNL1        0.1565
     24 C         140.6517  145.5941  156.1724 C.ar    1  UNL1        0.0131
     25 C         139.7525  144.5359  156.7395 C.ar    1  UNL1        0.0015
     26 C         140.0879  143.8909  158.0515 C.ar    1  UNL1        0.0342
     27 C         141.3226  144.3040  158.7964 C.ar    1  UNL1        0.1343
     28 N         142.2218  145.3621  158.2293 N.ar    1  UNL1       -0.2293
     29 C         141.8864  146.0072  156.9173 C.ar    1  UNL1        0.0974
     30 C         140.3162  146.2391  154.8604 C.3     1  UNL1        0.1008
     31 N         139.0351  150.5511  154.7355 N.3     1  UNL1       -0.2703
     32 C         139.9720  150.0166  153.6932 C.3     1  UNL1        0.0897
     33 C         140.3991  148.5793  153.7348 C.3     1  UNL1        0.0899
     34 N         139.8892  147.6764  154.8188 N.3     1  UNL1       -0.2665
     35 C         138.9522  148.2109  155.8611 C.3     1  UNL1        0.0899
     36 C         138.5252  149.6483  155.8194 C.3     1  UNL1        0.0897
     37 C         138.4321  152.6807  153.3748 C.3     1  UNL1        0.0188
     38 C         138.6080  151.9885  154.6938 C.3     1  UNL1        0.0722
@<TRIPOS>BOND
     1    37    38    1
     2    38    31    1
     3    31    32    1
     4    32    33    1
     5    33    34    1
     6    34    30    1
     7    30    24    1
     8    24    25   ar
     9    25    26   ar
    10    26    27   ar
    11    27    22    1
    12    22     1    1
    13     1     2   ar
    14     2     3   ar
    15     3     4   ar
    16     4     5    1
    17     4     6   ar
    18     6     8    1
    19     8     9   ar
    20     9    10   ar
    21    10    11    1
    22    10    12   ar
    23    12    13   ar
    24    13    14   ar
    25    14    15    1
    26    14    16   ar
    27    16    19    1
    28    19    20    1
    29    19    21    1
    30    16    17   ar
    31    17    18   ar
    32     6     7   ar
    33    27    28   ar
    34    28    29   ar
    35    34    35    1
    36    35    36    1
    37    36    31    1
    38    29    24   ar
    39     7     1   ar
    40    18     8   ar
    41    17    12   ar
    42    22    23    1
@<TRIPOS>MOLECULE
*****
 38 42 0 0 0
SMALL
GASTEIGER

@<TRIPOS>ATOM
      1 C         141.6952  144.1769  161.6698 C.ar    1  UNL1        0.2219
      2 N         140.7235  145.2839  161.3865 N.ar    1  UNL1       -0.2096
      3 C         139.4774  145.4174  162.2108 C.ar    1  UNL1        0.1329
      4 C         139.2030  144.4438  163.3185 C.ar    1  UNL1        0.1768
      5 F         137.9569  144.5772  164.1428 F       1  UNL1       -0.2009
      6 C         140.1747  143.3368  163.6018 C.ar    1  UNL1        0.1132
      7 N         141.4208  143.2033  162.7775 N.ar    1  UNL1       -0.2112
      8 C         139.9003  142.3632  164.7095 C.ar    1  UNL1        0.0238
      9 C         139.1129  141.1166  164.4344 C.ar    1  UNL1        0.0329
     10 C         138.8385  140.1431  165.5420 C.ar    1  UNL1        0.1591
     11 F         138.0510  138.8964  165.2669 F       1  UNL1       -0.2025
     12 C         139.3516  140.4162  166.9248 C.ar    1  UNL1        0.1256
     13 N         139.2393  139.6463  168.2073 N.ar    1  UNL1       -0.2287
     14 C         139.9574  140.4172  169.2751 C.ar    1  UNL1        0.1207
     15 C         140.0953  140.0128  170.7130 C.3     1  UNL1        0.0718
     16 N         140.5135  141.6635  168.6525 N.ar    1  UNL1       -0.3167
     17 C         140.1391  141.6628  167.2000 C.ar    1  UNL1        0.0808
     18 C         140.4134  142.6363  166.0923 C.ar    1  UNL1        0.0205
     19 C         141.3050  142.7241  169.3584 C.3     1  UNL1        0.0867
     20 C         140.6148  143.9434  169.8940 C.3     1  UNL1        0.0245
     21 C         142.7868  142.5656  169.5288 C.3     1  UNL1        0.0245
     22 N         142.9412  144.0435  160.8456 N.pl3   1  UNL1       -0.2680
     23 H         143.7511  144.5458  161.0927 H       1  UNL1        0.1565
     24 C         142.9779  141.3470  157.2431 C.ar    1  UNL1        0.0131
     25 C         141.6794  141.6857  157.9132 C.ar    1  UNL1        0.0015
     26 C         141.6672  142.5845  159.1140 C.ar    1  UNL1        0.0342
     27 C         142.9535  143.1446  159.6447 C.ar    1  UNL1        0.1343
     28 N         144.2520  142.8059  158.9746 N.ar    1  UNL1       -0.2293
     29 C         144.2642  141.9071  157.7738 C.ar    1  UNL1        0.0974
     30 C         142.9902  140.4482  156.0423 C.3     1  UNL1        0.1008
     31 N         143.5230  136.0099  156.5592 N.3     1  UNL1       -0.2703
     32 C         142.6671  136.7795  157.5210 C.3     1  UNL1        0.0897
     33 C         142.4895  138.2590  157.3487 C.3     1  UNL1        0.0899
     34 N         143.1678  138.9688  156.2146 N.3     1  UNL1       -0.2665
     35 C         144.0237  138.1991  155.2528 C.3     1  UNL1        0.0899
     36 C         144.2013  136.7196  155.4251 C.3     1  UNL1        0.0897
     37 C         143.3957  133.6009  155.5944 C.3     1  UNL1        0.0188
     38 C         143.7006  134.5304  156.7315 C.3     1  UNL1        0.0722
@<TRIPOS>BOND
     1    37    38    1
     2    38    31    1
     3    31    32    1
     4    32    33    1
     5    33    34    1
     6    34    30    1
     7    30    24    1
     8    24    25   ar
     9    25    26   ar
    10    26    27   ar
    11    27    22    1
    12    22     1    1
    13     1     2   ar
    14     2     3   ar
    15     3     4   ar
    16     4     5    1
    17     4     6   ar
    18     6     8    1
    19     8     9   ar
    20     9    10   ar
    21    10    11    1
    22    10    12   ar
    23    12    13   ar
    24    13    14   ar
    25    14    15    1
    26    14    16   ar
    27    16    19    1
    28    19    20    1
    29    19    21    1
    30    16    17   ar
    31    17    18   ar
    32     6     7   ar
    33    27    28   ar
    34    28    29   ar
    35    34    35    1
    36    35    36    1
    37    36    31    1
    38    29    24   ar
    39     7     1   ar
    40    18     8   ar
    41    17    12   ar
    42    22    23    1
@<TRIPOS>MOLECULE
*****
 38 42 0 0 0
SMALL
GASTEIGER

@<TRIPOS>ATOM
      1 C         141.2517  144.6136  162.1283 C.ar    1  UNL1        0.2219
      2 N         140.0802  145.4772  161.7649 N.ar    1  UNL1       -0.2096
      3 C         138.7824  145.3298  162.5025 C.ar    1  UNL1        0.1329
      4 C         138.6561  144.3189  163.6034 C.ar    1  UNL1        0.1768
      5 F         137.3582  144.1715  164.3410 F       1  UNL1       -0.2009
      6 C         139.8275  143.4553  163.9668 C.ar    1  UNL1        0.1132
      7 N         141.1253  143.6027  163.2293 N.ar    1  UNL1       -0.2112
      8 C         139.7011  142.4444  165.0678 C.ar    1  UNL1        0.0238
      9 C         139.0158  141.1354  164.8090 C.ar    1  UNL1        0.0329
     10 C         138.8895  140.1246  165.9100 C.ar    1  UNL1        0.1591
     11 F         138.2042  138.8155  165.6513 F       1  UNL1       -0.2025
     12 C         139.4483  140.4227  167.2697 C.ar    1  UNL1        0.1256
     13 N         139.4740  139.6267  168.5409 N.ar    1  UNL1       -0.2287
     14 C         140.1751  140.4438  169.5853 C.ar    1  UNL1        0.1207
     15 C         140.4249  140.0323  171.0060 C.3     1  UNL1        0.0718
     16 N         140.5828  141.7447  168.9595 N.ar    1  UNL1       -0.3167
     17 C         140.1336  141.7316  167.5284 C.ar    1  UNL1        0.0808
     18 C         140.2599  142.7425  166.4275 C.ar    1  UNL1        0.0205
     19 C         141.3116  142.8625  169.6446 C.3     1  UNL1        0.0867
     20 C         142.7796  142.7387  169.9269 C.3     1  UNL1        0.0245
     21 C         140.5726  144.1040  170.0474 C.3     1  UNL1        0.0245
     22 N         142.5495  144.7610  161.3908 N.pl3   1  UNL1       -0.2680
     23 H         143.1902  145.4596  161.6566 H       1  UNL1        0.1565
     24 C         143.5144  142.0099  157.9629 C.ar    1  UNL1        0.0131
     25 C         143.7236  141.5502  159.3753 C.ar    1  UNL1        0.0015
     26 C         143.4019  142.4673  160.5179 C.ar    1  UNL1        0.0342
     27 C         142.8711  143.8440  160.2481 C.ar    1  UNL1        0.1343
     28 N         142.6619  144.3036  158.8358 N.ar    1  UNL1       -0.2293
     29 C         142.9836  143.3866  157.6931 C.ar    1  UNL1        0.0974
     30 C         143.8360  141.0929  156.8203 C.3     1  UNL1        0.1008
     31 N         147.5146  141.8072  154.3287 N.3     1  UNL1       -0.2703
     32 C         147.5225  142.1417  155.7909 C.3     1  UNL1        0.0897
     33 C         146.2964  141.9036  156.6214 C.3     1  UNL1        0.0899
     34 N         145.0622  141.3310  155.9898 N.3     1  UNL1       -0.2665
     35 C         145.0542  140.9965  154.5276 C.3     1  UNL1        0.0899
     36 C         146.2805  141.2346  153.6970 C.3     1  UNL1        0.0897
     37 C         149.0442  143.4223  152.9863 C.3     1  UNL1        0.0188
     38 C         148.7408  142.0454  153.4982 C.3     1  UNL1        0.0722
@<TRIPOS>BOND
     1    37    38    1
     2    38    31    1
     3    31    32    1
     4    32    33    1
     5    33    34    1
     6    34    30    1
     7    30    24    1
     8    24    25   ar
     9    25    26   ar
    10    26    27   ar
    11    27    22    1
    12    22     1    1
    13     1     2   ar
    14     2     3   ar
    15     3     4   ar
    16     4     5    1
    17     4     6   ar
    18     6     8    1
    19     8     9   ar
    20     9    10   ar
    21    10    11    1
    22    10    12   ar
    23    12    13   ar
    24    13    14   ar
    25    14    15    1
    26    14    16   ar
    27    16    19    1
    28    19    20    1
    29    19    21    1
    30    16    17   ar
    31    17    18   ar
    32     6     7   ar
    33    27    28   ar
    34    28    29   ar
    35    34    35    1
    36    35    36    1
    37    36    31    1
    38    29    24   ar
    39     7     1   ar
    40    18     8   ar
    41    17    12   ar
    42    22    23    1
@<TRIPOS>MOLECULE
*****
 38 42 0 0 0
SMALL
GASTEIGER

@<TRIPOS>ATOM
      1 C         141.3152  144.5944  161.9475 C.ar    1  UNL1        0.2219
      2 N         140.2074  145.5626  161.6554 N.ar    1  UNL1       -0.2096
      3 C         138.9343  145.5067  162.4468 C.ar    1  UNL1        0.1329
      4 C         138.7691  144.4826  163.5303 C.ar    1  UNL1        0.1768
      5 F         137.4961  144.4267  164.3218 F       1  UNL1       -0.2009
      6 C         139.8769  143.5144  163.8224 C.ar    1  UNL1        0.1132
      7 N         141.1499  143.5702  163.0310 N.ar    1  UNL1       -0.2112
      8 C         139.7117  142.4903  164.9059 C.ar    1  UNL1        0.0238
      9 C         138.9970  141.2032  164.6187 C.ar    1  UNL1        0.0329
     10 C         138.8318  140.1792  165.7022 C.ar    1  UNL1        0.1591
     11 F         138.1170  138.8920  165.4151 F       1  UNL1       -0.2025
     12 C         139.3813  140.4422  167.0729 C.ar    1  UNL1        0.1256
     13 N         139.3714  139.6265  168.3318 N.ar    1  UNL1       -0.2287
     14 C         140.0801  140.4096  169.3970 C.ar    1  UNL1        0.1207
     15 C         140.3020  139.9702  170.8140 C.3     1  UNL1        0.0718
     16 N         140.5279  141.7091  168.7965 N.ar    1  UNL1       -0.3167
     17 C         140.0961  141.7293  167.3601 C.ar    1  UNL1        0.0808
     18 C         140.2613  142.7533  166.2766 C.ar    1  UNL1        0.0205
     19 C         141.2763  142.7975  169.5074 C.3     1  UNL1        0.0867
     20 C         140.5542  144.0318  169.9603 C.3     1  UNL1        0.0245
     21 C         142.7467  142.6516  169.7655 C.3     1  UNL1        0.0245
     22 N         142.5882  144.6502  161.1561 N.pl3   1  UNL1       -0.2680
     23 H         143.2021  145.4122  161.2644 H       1  UNL1        0.1565
     24 C         143.6012  141.3349  158.2869 C.ar    1  UNL1        0.0131
     25 C         142.9488  142.5885  157.7843 C.ar    1  UNL1        0.0015
     26 C         142.6111  143.6936  158.7407 C.ar    1  UNL1        0.0342
     27 C         142.9258  143.5451  160.1997 C.ar    1  UNL1        0.1343
     28 N         143.5782  142.2914  160.7023 N.ar    1  UNL1       -0.2293
     29 C         143.9159  141.1863  159.7459 C.ar    1  UNL1        0.0974
     30 C         143.9389  140.2298  157.3305 C.3     1  UNL1        0.1008
     31 N         140.6660  137.6659  155.6086 N.3     1  UNL1       -0.2703
     32 C         141.3362  137.2664  156.8897 C.3     1  UNL1        0.0897
     33 C         142.4271  138.1210  157.4637 C.3     1  UNL1        0.0899
     34 N         142.8479  139.3752  156.7565 N.3     1  UNL1       -0.2665
     35 C         142.1778  139.7747  155.4754 C.3     1  UNL1        0.0899
     36 C         141.0868  138.9200  154.9014 C.3     1  UNL1        0.0897
     37 C         138.8167  137.2745  153.8262 C.3     1  UNL1        0.0188
     38 C         139.5750  136.8112  155.0346 C.3     1  UNL1        0.0722
@<TRIPOS>BOND
     1    37    38    1
     2    38    31    1
     3    31    32    1
     4    32    33    1
     5    33    34    1
     6    34    30    1
     7    30    24    1
     8    24    25   ar
     9    25    26   ar
    10    26    27   ar
    11    27    22    1
    12    22     1    1
    13     1     2   ar
    14     2     3   ar
    15     3     4   ar
    16     4     5    1
    17     4     6   ar
    18     6     8    1
    19     8     9   ar
    20     9    10   ar
    21    10    11    1
    22    10    12   ar
    23    12    13   ar
    24    13    14   ar
    25    14    15    1
    26    14    16   ar
    27    16    19    1
    28    19    20    1
    29    19    21    1
    30    16    17   ar
    31    17    18   ar
    32     6     7   ar
    33    27    28   ar
    34    28    29   ar
    35    34    35    1
    36    35    36    1
    37    36    31    1
    38    29    24   ar
    39     7     1   ar
    40    18     8   ar
    41    17    12   ar
    42    22    23    1
@<TRIPOS>MOLECULE
*****
 38 42 0 0 0
SMALL
GASTEIGER

@<TRIPOS>ATOM
      1 C         143.2446  141.7689  161.1323 C.ar    1  UNL1        0.2219
      2 N         143.0609  143.2362  160.8808 N.ar    1  UNL1       -0.2096
      3 C         142.1707  144.0451  161.7771 C.ar    1  UNL1        0.1329
      4 C         141.4644  143.3867  162.9250 C.ar    1  UNL1        0.1768
      5 F         140.5743  144.1956  163.8213 F       1  UNL1       -0.2009
      6 C         141.6481  141.9194  163.1765 C.ar    1  UNL1        0.1132
      7 N         142.5382  141.1105  162.2802 N.ar    1  UNL1       -0.2112
      8 C         140.9417  141.2610  164.3244 C.ar    1  UNL1        0.0238
      9 C         140.0405  140.0877  164.0769 C.ar    1  UNL1        0.0329
     10 C         139.3342  139.4294  165.2248 C.ar    1  UNL1        0.1591
     11 F         138.4329  138.2561  164.9774 F       1  UNL1       -0.2025
     12 C         139.5290  139.9443  166.6201 C.ar    1  UNL1        0.1256
     13 N         138.9696  139.5029  167.9401 N.ar    1  UNL1       -0.2287
     14 C         139.5252  140.4034  169.0033 C.ar    1  UNL1        0.1207
     15 C         139.2299  140.3206  170.4717 C.3     1  UNL1        0.0718
     16 N         140.4279  141.4013  168.3404 N.ar    1  UNL1       -0.3167
     17 C         140.4302  141.1175  166.8675 C.ar    1  UNL1        0.0808
     18 C         141.1366  141.7759  165.7197 C.ar    1  UNL1        0.0205
     19 C         141.1937  142.4915  169.0295 C.3     1  UNL1        0.0867
     20 C         140.4656  143.6653  169.6145 C.3     1  UNL1        0.0245
     21 C         142.6878  142.4082  169.1336 C.3     1  UNL1        0.0245
     22 N         144.1346  140.9600  160.2360 N.pl3   1  UNL1       -0.2680
     23 H         145.1130  141.0380  160.3133 H       1  UNL1        0.1565
     24 C         142.3331  138.1764  157.1936 C.ar    1  UNL1        0.0131
     25 C         141.8148  138.1859  158.6012 C.ar    1  UNL1        0.0015
     26 C         142.4154  139.1137  159.6153 C.ar    1  UNL1        0.0342
     27 C         143.5341  140.0321  159.2218 C.ar    1  UNL1        0.1343
     28 N         144.0524  140.0227  157.8143 N.ar    1  UNL1       -0.2293
     29 C         143.4518  139.0948  156.8002 C.ar    1  UNL1        0.0974
     30 C         141.7325  137.2485  156.1795 C.3     1  UNL1        0.1008
     31 N         142.7059  132.8566  156.2935 N.3     1  UNL1       -0.2703
     32 C         143.4866  133.8199  157.1375 C.3     1  UNL1        0.0897
     33 C         143.1622  135.2839  157.0995 C.3     1  UNL1        0.0899
     34 N         142.0570  135.7846  156.2175 N.3     1  UNL1       -0.2665
     35 C         141.2762  134.8212  155.3735 C.3     1  UNL1        0.0899
     36 C         141.6007  133.3571  155.4115 C.3     1  UNL1        0.0897
     37 C         144.4561  130.9375  156.2303 C.3     1  UNL1        0.0188
     38 C         143.0304  131.3925  156.3315 C.3     1  UNL1        0.0722
@<TRIPOS>BOND
     1    37    38    1
     2    38    31    1
     3    31    32    1
     4    32    33    1
     5    33    34    1
     6    34    30    1
     7    30    24    1
     8    24    25   ar
     9    25    26   ar
    10    26    27   ar
    11    27    22    1
    12    22     1    1
    13     1     2   ar
    14     2     3   ar
    15     3     4   ar
    16     4     5    1
    17     4     6   ar
    18     6     8    1
    19     8     9   ar
    20     9    10   ar
    21    10    11    1
    22    10    12   ar
    23    12    13   ar
    24    13    14   ar
    25    14    15    1
    26    14    16   ar
    27    16    19    1
    28    19    20    1
    29    19    21    1
    30    16    17   ar
    31    17    18   ar
    32     6     7   ar
    33    27    28   ar
    34    28    29   ar
    35    34    35    1
    36    35    36    1
    37    36    31    1
    38    29    24   ar
    39     7     1   ar
    40    18     8   ar
    41    17    12   ar
    42    22    23    1
@<TRIPOS>MOLECULE
*****
 38 42 0 0 0
SMALL
GASTEIGER

@<TRIPOS>ATOM
      1 C         141.2911  143.9214  161.2839 C.ar    1  UNL1        0.2219
      2 N         140.7647  145.3230  161.3761 N.ar    1  UNL1       -0.2096
      3 C         139.9676  145.7475  162.5738 C.ar    1  UNL1        0.1329
      4 C         139.6970  144.7705  163.6793 C.ar    1  UNL1        0.1768
      5 F         138.8999  145.1950  164.8770 F       1  UNL1       -0.2009
      6 C         140.2233  143.3689  163.5871 C.ar    1  UNL1        0.1132
      7 N         141.0204  142.9444  162.3894 N.ar    1  UNL1       -0.2112
      8 C         139.9526  142.3918  164.6926 C.ar    1  UNL1        0.0238
      9 C         139.1726  141.1413  164.4140 C.ar    1  UNL1        0.0329
     10 C         138.9019  140.1643  165.5195 C.ar    1  UNL1        0.1591
     11 F         138.1219  138.9137  165.2409 F       1  UNL1       -0.2025
     12 C         139.4112  140.4379  166.9036 C.ar    1  UNL1        0.1256
     13 N         139.3012  139.6651  168.1846 N.ar    1  UNL1       -0.2287
     14 C         140.0132  140.4381  169.2548 C.ar    1  UNL1        0.1207
     15 C         140.1510  140.0320  170.6923 C.3     1  UNL1        0.0718
     16 N         140.5633  141.6886  168.6353 N.ar    1  UNL1       -0.3167
     17 C         140.1912  141.6884  167.1822 C.ar    1  UNL1        0.0808
     18 C         140.4619  142.6654  166.0767 C.ar    1  UNL1        0.0205
     19 C         141.3477  142.7524  169.3444 C.3     1  UNL1        0.0867
     20 C         140.6509  143.9708  169.8738 C.3     1  UNL1        0.0245
     21 C         142.8288  142.5981  169.5242 C.3     1  UNL1        0.0245
     22 N         142.0881  143.4969  160.0862 N.pl3   1  UNL1       -0.2680
     23 H         143.0708  143.5551  160.1030 H       1  UNL1        0.1565
     24 C         139.9879  141.9572  156.4163 C.ar    1  UNL1        0.0131
     25 C         139.7288  143.3538  156.8983 C.ar    1  UNL1        0.0015
     26 C         140.4289  143.8670  158.1216 C.ar    1  UNL1        0.0342
     27 C         141.3881  142.9837  158.8629 C.ar    1  UNL1        0.1343
     28 N         141.6472  141.5871  158.3809 N.ar    1  UNL1       -0.2293
     29 C         140.9471  141.0739  157.1576 C.ar    1  UNL1        0.0974
     30 C         139.2878  141.4440  155.1930 C.3     1  UNL1        0.1008
     31 N         134.7934  141.2454  155.0894 N.3     1  UNL1       -0.2703
     32 C         135.5324  140.8659  156.3384 C.3     1  UNL1        0.0897
     33 C         137.0305  140.9321  156.3729 C.3     1  UNL1        0.0899
     34 N         137.7897  141.3778  155.1584 N.3     1  UNL1       -0.2665
     35 C         137.0508  141.7573  153.9094 C.3     1  UNL1        0.0899
     36 C         135.5526  141.6911  153.8750 C.3     1  UNL1        0.0897
     37 C         132.5501  140.4779  156.1517 C.3     1  UNL1        0.0188
     38 C         133.2952  141.1792  155.0549 C.3     1  UNL1        0.0722
@<TRIPOS>BOND
     1    37    38    1
     2    38    31    1
     3    31    32    1
     4    32    33    1
     5    33    34    1
     6    34    30    1
     7    30    24    1
     8    24    25   ar
     9    25    26   ar
    10    26    27   ar
    11    27    22    1
    12    22     1    1
    13     1     2   ar
    14     2     3   ar
    15     3     4   ar
    16     4     5    1
    17     4     6   ar
    18     6     8    1
    19     8     9   ar
    20     9    10   ar
    21    10    11    1
    22    10    12   ar
    23    12    13   ar
    24    13    14   ar
    25    14    15    1
    26    14    16   ar
    27    16    19    1
    28    19    20    1
    29    19    21    1
    30    16    17   ar
    31    17    18   ar
    32     6     7   ar
    33    27    28   ar
    34    28    29   ar
    35    34    35    1
    36    35    36    1
    37    36    31    1
    38    29    24   ar
    39     7     1   ar
    40    18     8   ar
    41    17    12   ar
    42    22    23    1
@<TRIPOS>MOLECULE
*****
 38 42 0 0 0
SMALL
GASTEIGER

@<TRIPOS>ATOM
      1 C         140.2822  144.7218  161.8438 C.ar    1  UNL1        0.2219
      2 N         138.7916  144.8569  161.9422 N.ar    1  UNL1       -0.2096
      3 C         138.0283  144.0361  162.9391 C.ar    1  UNL1        0.1329
      4 C         138.7556  143.0802  163.8375 C.ar    1  UNL1        0.1768
      5 F         137.9924  142.2594  164.8344 F       1  UNL1       -0.2009
      6 C         140.2463  142.9451  163.7391 C.ar    1  UNL1        0.1132
      7 N         141.0096  143.7658  162.7422 N.ar    1  UNL1       -0.2112
      8 C         140.9737  141.9891  164.6375 C.ar    1  UNL1        0.0238
      9 C         142.0232  141.0790  164.0717 C.ar    1  UNL1        0.0329
     10 C         142.7505  140.1231  164.9702 C.ar    1  UNL1        0.1591
     11 F         143.8000  139.2129  164.4044 F       1  UNL1       -0.2025
     12 C         142.4283  140.0774  166.4345 C.ar    1  UNL1        0.1256
     13 N         142.9751  139.2461  167.5570 N.ar    1  UNL1       -0.2287
     14 C         142.2635  139.6425  168.8165 C.ar    1  UNL1        0.1207
     15 C         142.4974  139.0641  170.1807 C.3     1  UNL1        0.0718
     16 N         141.2770  140.7187  168.4725 N.ar    1  UNL1       -0.3167
     17 C         141.3788  140.9875  167.0003 C.ar    1  UNL1        0.0808
     18 C         140.6515  141.9434  166.1018 C.ar    1  UNL1        0.0205
     19 C         140.3511  141.4056  169.4321 C.3     1  UNL1        0.0867
     20 C         139.1244  140.6984  169.9271 C.3     1  UNL1        0.0245
     21 C         140.6518  142.7997  169.8968 C.3     1  UNL1        0.0245
     22 N         141.0455  145.5426  160.8470 N.pl3   1  UNL1       -0.2680
     23 H         141.3055  146.4665  161.0661 H       1  UNL1        0.1565
     24 C         142.1471  143.7818  156.8549 C.ar    1  UNL1        0.0131
     25 C         140.9452  144.6710  156.9765 C.ar    1  UNL1        0.0015
     26 C         140.5780  145.2579  158.3072 C.ar    1  UNL1        0.0342
     27 C         141.4127  144.9556  159.5163 C.ar    1  UNL1        0.1343
     28 N         142.6145  144.0664  159.3947 N.ar    1  UNL1       -0.2293
     29 C         142.9817  143.4795  158.0640 C.ar    1  UNL1        0.0974
     30 C         142.5142  143.1949  155.5242 C.3     1  UNL1        0.1008
     31 N         146.5594  144.0270  153.7371 N.3     1  UNL1       -0.2703
     32 C         146.3934  142.9180  154.7334 C.3     1  UNL1        0.0897
     33 C         145.0450  142.6406  155.3291 C.3     1  UNL1        0.0899
     34 N         143.8626  143.4722  154.9285 N.3     1  UNL1       -0.2665
     35 C         144.0287  144.5812  153.9323 C.3     1  UNL1        0.0899
     36 C         145.3771  144.8586  153.3365 C.3     1  UNL1        0.0897
     37 C         148.7214  143.1805  152.5712 C.3     1  UNL1        0.0188
     38 C         147.9079  144.3043  153.1414 C.3     1  UNL1        0.0722
@<TRIPOS>BOND
     1    37    38    1
     2    38    31    1
     3    31    32    1
     4    32    33    1
     5    33    34    1
     6    34    30    1
     7    30    24    1
     8    24    25   ar
     9    25    26   ar
    10    26    27   ar
    11    27    22    1
    12    22     1    1
    13     1     2   ar
    14     2     3   ar
    15     3     4   ar
    16     4     5    1
    17     4     6   ar
    18     6     8    1
    19     8     9   ar
    20     9    10   ar
    21    10    11    1
    22    10    12   ar
    23    12    13   ar
    24    13    14   ar
    25    14    15    1
    26    14    16   ar
    27    16    19    1
    28    19    20    1
    29    19    21    1
    30    16    17   ar
    31    17    18   ar
    32     6     7   ar
    33    27    28   ar
    34    28    29   ar
    35    34    35    1
    36    35    36    1
    37    36    31    1
    38    29    24   ar
    39     7     1   ar
    40    18     8   ar
    41    17    12   ar
    42    22    23    1
@<TRIPOS>MOLECULE
*****
 38 42 0 0 0
SMALL
GASTEIGER

@<TRIPOS>ATOM
      1 C         140.6835  144.6769  161.5210 C.ar    1  UNL1        0.2219
      2 N         139.2709  145.1274  161.7480 N.ar    1  UNL1       -0.2096
      3 C         138.4812  144.5705  162.8953 C.ar    1  UNL1        0.1329
      4 C         139.1041  143.5631  163.8156 C.ar    1  UNL1        0.1768
      5 F         138.3144  143.0061  164.9629 F       1  UNL1       -0.2009
      6 C         140.5167  143.1125  163.5887 C.ar    1  UNL1        0.1132
      7 N         141.3064  143.6693  162.4414 N.ar    1  UNL1       -0.2112
      8 C         141.1396  142.1049  164.5090 C.ar    1  UNL1        0.0238
      9 C         142.0942  141.0830  163.9666 C.ar    1  UNL1        0.0329
     10 C         142.7170  140.0755  164.8869 C.ar    1  UNL1        0.1591
     11 F         143.6716  139.0535  164.3445 F       1  UNL1       -0.2025
     12 C         142.3852  140.0900  166.3497 C.ar    1  UNL1        0.1256
     13 N         142.8401  139.2289  167.4906 N.ar    1  UNL1       -0.2287
     14 C         142.1666  139.7188  168.7382 C.ar    1  UNL1        0.1207
     15 C         142.3347  139.1455  170.1142 C.3     1  UNL1        0.0718
     16 N         141.2955  140.8826  168.3683 N.ar    1  UNL1       -0.3167
     17 C         141.4306  141.1120  166.8921 C.ar    1  UNL1        0.0808
     18 C         140.8078  142.1195  165.9718 C.ar    1  UNL1        0.0205
     19 C         140.4396  141.6774  169.3093 C.3     1  UNL1        0.0867
     20 C         140.7700  143.1128  169.5930 C.3     1  UNL1        0.0245
     21 C         139.2532  141.0369  169.9667 C.3     1  UNL1        0.0245
     22 N         141.4732  145.2337  160.3738 N.pl3   1  UNL1       -0.2680
     23 H         141.6315  146.2033  160.3098 H       1  UNL1        0.1565
     24 C         143.1185  142.4726  157.2243 C.ar    1  UNL1        0.0131
     25 C         141.7996  143.1539  157.0096 C.ar    1  UNL1        0.0015
     26 C         141.2511  144.0742  158.0595 C.ar    1  UNL1        0.0342
     27 C         142.0216  144.3134  159.3240 C.ar    1  UNL1        0.1343
     28 N         143.3406  143.6321  159.5387 N.ar    1  UNL1       -0.2293
     29 C         143.8891  142.7118  158.4889 C.ar    1  UNL1        0.0974
     30 C         143.6670  141.5523  156.1745 C.3     1  UNL1        0.1008
     31 N         143.2893  137.0956  156.6695 N.3     1  UNL1       -0.2703
     32 C         142.6053  138.0180  157.6345 C.3     1  UNL1        0.0897
     33 C         142.7312  139.5035  157.4695 C.3     1  UNL1        0.0899
     34 N         143.5411  140.0667  156.3395 N.3     1  UNL1       -0.2665
     35 C         144.2252  139.1443  155.3745 C.3     1  UNL1        0.0899
     36 C         144.0992  137.6587  155.5395 C.3     1  UNL1        0.0897
     37 C         142.2250  134.8348  155.9578 C.3     1  UNL1        0.0188
     38 C         143.1634  135.6099  156.8345 C.3     1  UNL1        0.0722
@<TRIPOS>BOND
     1    37    38    1
     2    38    31    1
     3    31    32    1
     4    32    33    1
     5    33    34    1
     6    34    30    1
     7    30    24    1
     8    24    25   ar
     9    25    26   ar
    10    26    27   ar
    11    27    22    1
    12    22     1    1
    13     1     2   ar
    14     2     3   ar
    15     3     4   ar
    16     4     5    1
    17     4     6   ar
    18     6     8    1
    19     8     9   ar
    20     9    10   ar
    21    10    11    1
    22    10    12   ar
    23    12    13   ar
    24    13    14   ar
    25    14    15    1
    26    14    16   ar
    27    16    19    1
    28    19    20    1
    29    19    21    1
    30    16    17   ar
    31    17    18   ar
    32     6     7   ar
    33    27    28   ar
    34    28    29   ar
    35    34    35    1
    36    35    36    1
    37    36    31    1
    38    29    24   ar
    39     7     1   ar
    40    18     8   ar
    41    17    12   ar
    42    22    23    1
@<TRIPOS>MOLECULE
*****
 38 42 0 0 0
SMALL
GASTEIGER

@<TRIPOS>ATOM
      1 C         138.5070  142.1520  161.3429 C.ar    1  UNL1        0.2219
      2 N         137.9837  143.5207  161.6634 N.ar    1  UNL1       -0.2096
      3 C         138.3339  144.1708  162.9691 C.ar    1  UNL1        0.1329
      4 C         139.2074  143.4521  163.9543 C.ar    1  UNL1        0.1768
      5 F         139.5576  144.1022  165.2600 F       1  UNL1       -0.2009
      6 C         139.7307  142.0834  163.6338 C.ar    1  UNL1        0.1132
      7 N         139.3805  141.4333  162.3281 N.ar    1  UNL1       -0.2112
      8 C         140.6042  141.3647  164.6190 C.ar    1  UNL1        0.0238
      9 C         141.8222  140.6291  164.1444 C.ar    1  UNL1        0.0329
     10 C         142.6956  139.9105  165.1296 C.ar    1  UNL1        0.1591
     11 F         143.9137  139.1748  164.6551 F       1  UNL1       -0.2025
     12 C         142.3510  139.9274  166.5894 C.ar    1  UNL1        0.1256
     13 N         143.0178  139.3148  167.7853 N.ar    1  UNL1       -0.2287
     14 C         142.2119  139.6718  168.9990 C.ar    1  UNL1        0.1207
     15 C         142.5172  139.2667  170.4106 C.3     1  UNL1        0.0718
     16 N         141.0470  140.5051  168.5531 N.ar    1  UNL1       -0.3167
     17 C         141.1330  140.6630  167.0640 C.ar    1  UNL1        0.0808
     18 C         140.2596  141.3817  166.0788 C.ar    1  UNL1        0.0205
     19 C         139.9829  141.0795  169.4407 C.3     1  UNL1        0.0867
     20 C         138.8062  140.2398  169.8410 C.3     1  UNL1        0.0245
     21 C         140.0954  142.4937  169.9279 C.3     1  UNL1        0.0245
     22 N         138.1569  141.5019  160.0372 N.pl3   1  UNL1       -0.2680
     23 H         137.2340  141.5461  159.6972 H       1  UNL1        0.1565
     24 C         141.3246  139.3496  157.6744 C.ar    1  UNL1        0.0131
     25 C         141.1561  140.8326  157.5260 C.ar    1  UNL1        0.0015
     26 C         140.1002  141.5501  158.3136 C.ar    1  UNL1        0.0342
     27 C         139.2128  140.7845  159.2496 C.ar    1  UNL1        0.1343
     28 N         139.3813  139.3014  159.3981 N.ar    1  UNL1       -0.2293
     29 C         140.4372  138.5839  158.6104 C.ar    1  UNL1        0.0974
     30 C         142.3805  138.6321  156.8868 C.3     1  UNL1        0.1008
     31 N         141.7421  134.3553  155.6415 N.3     1  UNL1       -0.2703
     32 C         142.7575  134.6861  156.6948 C.3     1  UNL1        0.0897
     33 C         142.9703  136.1117  157.1099 C.3     1  UNL1        0.0899
     34 N         142.1677  137.2065  156.4717 N.3     1  UNL1       -0.2665
     35 C         141.1523  136.8757  155.4184 C.3     1  UNL1        0.0899
     36 C         140.9395  135.4500  155.0033 C.3     1  UNL1        0.0897
     37 C         142.5130  132.2595  154.3135 C.3     1  UNL1        0.0188
     38 C         141.5293  132.9296  155.2264 C.3     1  UNL1        0.0722
@<TRIPOS>BOND
     1    37    38    1
     2    38    31    1
     3    31    32    1
     4    32    33    1
     5    33    34    1
     6    34    30    1
     7    30    24    1
     8    24    25   ar
     9    25    26   ar
    10    26    27   ar
    11    27    22    1
    12    22     1    1
    13     1     2   ar
    14     2     3   ar
    15     3     4   ar
    16     4     5    1
    17     4     6   ar
    18     6     8    1
    19     8     9   ar
    20     9    10   ar
    21    10    11    1
    22    10    12   ar
    23    12    13   ar
    24    13    14   ar
    25    14    15    1
    26    14    16   ar
    27    16    19    1
    28    19    20    1
    29    19    21    1
    30    16    17   ar
    31    17    18   ar
    32     6     7   ar
    33    27    28   ar
    34    28    29   ar
    35    34    35    1
    36    35    36    1
    37    36    31    1
    38    29    24   ar
    39     7     1   ar
    40    18     8   ar
    41    17    12   ar
    42    22    23    1
