@<TRIPOS>MOLECULE
*****
 33 36 0 0 0
SMALL
GASTEIGER

@<TRIPOS>ATOM
      1 C         140.0773  141.6021  163.9778 C.3     1  UNL1        0.1753
      2 C         139.6527  140.2323  163.5382 C.ar    1  UNL1        0.0089
      3 C         139.4997  139.6169  162.1789 C.ar    1  UNL1       -0.0021
      4 C         139.0476  138.1927  162.0470 C.ar    1  UNL1       -0.0003
      5 C         138.7486  137.3840  163.2744 C.ar    1  UNL1        0.0001
      6 C         138.9016  137.9994  164.6337 C.ar    1  UNL1        0.0043
      7 C         139.3536  139.4235  164.7656 C.ar    1  UNL1        0.0517
      8 C         139.5934  140.2936  165.9638 C.2     1  UNL1        0.2496
      9 O         139.4170  139.8883  167.3971 O.2     1  UNL1       -0.2699
     10 N         140.0407  141.6400  165.4769 N.am    1  UNL1       -0.2620
     11 N         139.4461  143.3727  162.1842 N.am    1  UNL1       -0.3059
     12 C         140.4696  142.7351  163.0765 C.2     1  UNL1        0.2448
     13 O         141.8853  143.2306  163.0674 O.2     1  UNL1       -0.2729
     14 H         138.5169  143.0475  162.1902 H       1  UNL1        0.1494
     15 C         140.1425  143.5282  160.1865 C.3     1  UNL1        0.0196
     16 C         139.8385  144.5058  161.2829 C.3     1  UNL1        0.0569
     17 C         139.5344  145.4832  162.3794 C.3     1  UNL1        0.0196
     18 C         140.2308  145.6387  160.3817 C.3     1  UNL1        0.0196
     19 C         140.3900  142.8176  166.3379 C.3     1  UNL1        0.1212
     20 C         141.0499  142.6047  167.6679 C.ar    1  UNL1       -0.0001
     21 C         140.2679  142.7998  168.9331 C.ar    1  UNL1        0.0270
     22 C         140.9278  142.5869  170.2631 C.ar    1  UNL1        0.1399
     23 F         140.1458  142.7821  171.5282 F       1  UNL1       -0.2042
     24 C         142.3698  142.1789  170.3282 C.ar    1  UNL1        0.0296
     25 C         143.1518  141.9837  169.0631 C.ar    1  UNL1        0.0020
     26 C         142.4919  142.1966  167.7330 C.ar    1  UNL1       -0.0022
     27 C         143.2739  142.0015  166.4680 C.ar    1  UNL1       -0.0001
     28 C         144.0739  143.1353  165.8983 C.ar    1  UNL1        0.0023
     29 C         144.8559  142.9401  164.6333 C.ar    1  UNL1        0.0296
     30 C         144.8380  141.6111  163.9379 C.ar    1  UNL1        0.1401
     31 F         145.6200  141.4160  162.6729 F       1  UNL1       -0.2042
     32 C         144.0380  140.4773  164.5076 C.ar    1  UNL1        0.0296
     33 C         143.2560  140.6725  165.7726 C.ar    1  UNL1        0.0023
@<TRIPOS>BOND
     1    15    16    1
     2    16    17    1
     3    16    18    1
     4    16    11    1
     5    11    12   am
     6    12    13    2
     7    12     1    1
     8     1     2    1
     9     2     3   ar
    10     3     4   ar
    11     4     5   ar
    12     5     6   ar
    13     6     7   ar
    14     7     8    1
    15     8     9    2
    16     8    10   am
    17    10    19    1
    18    19    20    1
    19    20    21   ar
    20    21    22   ar
    21    22    23    1
    22    22    24   ar
    23    24    25   ar
    24    25    26   ar
    25    26    27    1
    26    27    28   ar
    27    28    29   ar
    28    29    30   ar
    29    30    31    1
    30    30    32   ar
    31    32    33   ar
    32    10     1    1
    33    26    20   ar
    34    33    27   ar
    35     7     2   ar
    36    11    14    1
@<TRIPOS>MOLECULE
*****
 33 36 0 0 0
SMALL
GASTEIGER

@<TRIPOS>ATOM
      1 C         141.2848  141.8017  166.5593 C.3     1  UNL1        0.1753
      2 C         141.3329  142.0976  168.0290 C.ar    1  UNL1        0.0089
      3 C         140.7783  143.2282  168.8439 C.ar    1  UNL1       -0.0021
      4 C         140.9896  143.2568  170.3286 C.ar    1  UNL1       -0.0003
      5 C         141.7556  142.1547  170.9985 C.ar    1  UNL1        0.0001
      6 C         142.3103  141.0242  170.1836 C.ar    1  UNL1        0.0043
      7 C         142.0990  140.9956  168.6989 C.ar    1  UNL1        0.0517
      8 C         142.5242  140.0186  167.6431 C.2     1  UNL1        0.2496
      9 O         143.3140  138.7637  167.8700 O.2     1  UNL1       -0.2699
     10 N         142.0210  140.5168  166.3208 N.am    1  UNL1       -0.2620
     11 N         139.1237  142.6261  165.3759 N.am    1  UNL1       -0.3059
     12 C         140.6175  142.6430  165.5119 C.2     1  UNL1        0.2448
     13 O         141.4438  143.5012  164.6006 O.2     1  UNL1       -0.2729
     14 H         138.5813  142.0629  165.9740 H       1  UNL1        0.1494
     15 C         138.4286  142.2895  163.4002 C.3     1  UNL1        0.0196
     16 C         138.4564  143.4674  164.3286 C.3     1  UNL1        0.0569
     17 C         138.4843  144.6453  165.2570 C.3     1  UNL1        0.0196
     18 C         137.7892  144.3087  163.2813 C.3     1  UNL1        0.0196
     19 C         142.2192  139.8475  164.9931 C.3     1  UNL1        0.1212
     20 C         141.0914  139.0876  164.3604 C.ar    1  UNL1       -0.0001
     21 C         140.1411  138.3044  165.2170 C.ar    1  UNL1        0.0270
     22 C         139.0132  137.5445  164.5843 C.ar    1  UNL1        0.1399
     23 F         138.0629  136.7612  165.4408 F       1  UNL1       -0.2042
     24 C         138.8355  137.5677  163.0950 C.ar    1  UNL1        0.0296
     25 C         139.7857  138.3509  162.2384 C.ar    1  UNL1        0.0020
     26 C         140.9136  139.1109  162.8711 C.ar    1  UNL1       -0.0022
     27 C         141.8638  139.8940  162.0146 C.ar    1  UNL1       -0.0001
     28 C         143.0683  139.2230  161.4238 C.ar    1  UNL1        0.0023
     29 C         144.0185  140.0062  160.5672 C.ar    1  UNL1        0.0296
     30 C         143.7642  141.4604  160.3014 C.ar    1  UNL1        0.1401
     31 F         144.7144  142.2436  159.4448 F       1  UNL1       -0.2042
     32 C         142.5597  142.1314  160.8921 C.ar    1  UNL1        0.0296
     33 C         141.6095  141.3482  161.7487 C.ar    1  UNL1        0.0023
@<TRIPOS>BOND
     1    15    16    1
     2    16    17    1
     3    16    18    1
     4    16    11    1
     5    11    12   am
     6    12    13    2
     7    12     1    1
     8     1     2    1
     9     2     3   ar
    10     3     4   ar
    11     4     5   ar
    12     5     6   ar
    13     6     7   ar
    14     7     8    1
    15     8     9    2
    16     8    10   am
    17    10    19    1
    18    19    20    1
    19    20    21   ar
    20    21    22   ar
    21    22    23    1
    22    22    24   ar
    23    24    25   ar
    24    25    26   ar
    25    26    27    1
    26    27    28   ar
    27    28    29   ar
    28    29    30   ar
    29    30    31    1
    30    30    32   ar
    31    32    33   ar
    32    10     1    1
    33    26    20   ar
    34    33    27   ar
    35     7     2   ar
    36    11    14    1
@<TRIPOS>MOLECULE
*****
 33 36 0 0 0
SMALL
GASTEIGER

@<TRIPOS>ATOM
      1 C         140.9636  141.5178  166.6901 C.3     1  UNL1        0.1753
      2 C         141.0724  141.9231  168.1302 C.ar    1  UNL1        0.0089
      3 C         140.4897  143.0739  168.8958 C.ar    1  UNL1       -0.0021
      4 C         140.7795  143.2242  170.3598 C.ar    1  UNL1       -0.0003
      5 C         141.6520  142.2237  171.0582 C.ar    1  UNL1        0.0001
      6 C         142.2347  141.0730  170.2926 C.ar    1  UNL1        0.0043
      7 C         141.9449  140.9227  168.8286 C.ar    1  UNL1        0.0517
      8 C         142.3753  139.8991  167.8201 C.2     1  UNL1        0.2496
      9 O         143.2574  138.7155  168.0866 O.2     1  UNL1       -0.2699
     10 N         141.7688  140.2669  166.4985 N.am    1  UNL1       -0.2620
     11 N         140.6122  143.6049  165.1830 N.am    1  UNL1       -0.3059
     12 C         140.1860  142.2372  165.6281 C.2     1  UNL1        0.2448
     13 O         138.9822  141.5891  165.0111 O.2     1  UNL1       -0.2729
     14 H         141.4023  144.0303  165.5880 H       1  UNL1        0.1494
     15 C         138.8625  144.8038  165.1578 C.3     1  UNL1        0.0196
     16 C         139.8347  144.3242  164.1210 C.3     1  UNL1        0.0569
     17 C         140.8069  143.8446  163.0843 C.3     1  UNL1        0.0196
     18 C         139.0571  145.0436  163.0591 C.3     1  UNL1        0.0196
     19 C         141.9379  139.5157  165.2112 C.3     1  UNL1        0.1212
     20 C         142.8122  140.0727  164.1271 C.ar    1  UNL1       -0.0001
     21 C         144.1913  140.5641  164.4539 C.ar    1  UNL1        0.0270
     22 C         145.0655  141.1211  163.3698 C.ar    1  UNL1        0.1399
     23 F         146.4446  141.6125  163.6967 F       1  UNL1       -0.2042
     24 C         144.5609  141.1867  161.9588 C.ar    1  UNL1        0.0296
     25 C         143.1819  140.6953  161.6319 C.ar    1  UNL1        0.0020
     26 C         142.3075  140.1383  162.7160 C.ar    1  UNL1       -0.0022
     27 C         140.9285  139.6469  162.3891 C.ar    1  UNL1       -0.0001
     28 C         140.5896  138.1956  162.5591 C.ar    1  UNL1        0.0023
     29 C         139.2106  137.7042  162.2322 C.ar    1  UNL1        0.0296
     30 C         138.1705  138.6641  161.7353 C.ar    1  UNL1        0.1401
     31 F         136.7915  138.1727  161.4083 F       1  UNL1       -0.2042
     32 C         138.5095  140.1154  161.5652 C.ar    1  UNL1        0.0296
     33 C         139.8886  140.6067  161.8922 C.ar    1  UNL1        0.0023
@<TRIPOS>BOND
     1    15    16    1
     2    16    17    1
     3    16    18    1
     4    16    11    1
     5    11    12   am
     6    12    13    2
     7    12     1    1
     8     1     2    1
     9     2     3   ar
    10     3     4   ar
    11     4     5   ar
    12     5     6   ar
    13     6     7   ar
    14     7     8    1
    15     8     9    2
    16     8    10   am
    17    10    19    1
    18    19    20    1
    19    20    21   ar
    20    21    22   ar
    21    22    23    1
    22    22    24   ar
    23    24    25   ar
    24    25    26   ar
    25    26    27    1
    26    27    28   ar
    27    28    29   ar
    28    29    30   ar
    29    30    31    1
    30    30    32   ar
    31    32    33   ar
    32    10     1    1
    33    26    20   ar
    34    33    27   ar
    35     7     2   ar
    36    11    14    1
@<TRIPOS>MOLECULE
*****
 33 36 0 0 0
SMALL
GASTEIGER

@<TRIPOS>ATOM
      1 C         141.8349  142.7657  162.7223 C.3     1  UNL1        0.1753
      2 C         141.6725  143.5200  161.4360 C.ar    1  UNL1        0.0089
      3 C         142.3202  143.3637  160.0922 C.ar    1  UNL1       -0.0021
      4 C         141.9497  144.2864  158.9692 C.ar    1  UNL1       -0.0003
      5 C         140.9315  145.3655  159.1900 C.ar    1  UNL1        0.0001
      6 C         140.2838  145.5219  160.5339 C.ar    1  UNL1        0.0043
      7 C         140.6543  144.5991  161.6569 C.ar    1  UNL1        0.0517
      8 C         140.1874  144.5116  163.0797 C.2     1  UNL1        0.2496
      9 O         139.1696  145.4012  163.7298 O.2     1  UNL1       -0.2699
     10 N         140.9171  143.3785  163.7382 N.am    1  UNL1       -0.2620
     11 N         143.5466  141.5129  164.2227 N.am    1  UNL1       -0.3059
     12 C         142.7539  141.6026  162.9524 C.2     1  UNL1        0.2448
     13 O         142.8802  140.5293  161.9123 O.2     1  UNL1       -0.2729
     14 H         143.4637  142.2174  164.9055 H       1  UNL1        0.1494
     15 C         143.3293  139.5693  165.0442 C.3     1  UNL1        0.0196
     16 C         144.4655  140.3499  164.4528 C.3     1  UNL1        0.0569
     17 C         145.6016  141.1306  163.8614 C.3     1  UNL1        0.0196
     18 C         145.3844  139.1869  164.6828 C.3     1  UNL1        0.0196
     19 C         140.7571  142.9360  165.1625 C.3     1  UNL1        0.1212
     20 C         140.0583  141.6456  165.4729 C.ar    1  UNL1       -0.0001
     21 C         139.2558  140.9530  164.4115 C.ar    1  UNL1        0.0270
     22 C         138.5570  139.6626  164.7219 C.ar    1  UNL1        0.1399
     23 F         137.7545  138.9700  163.6605 F       1  UNL1       -0.2042
     24 C         138.6607  139.0646  166.0937 C.ar    1  UNL1        0.0296
     25 C         139.4631  139.7571  167.1550 C.ar    1  UNL1        0.0020
     26 C         140.1619  141.0476  166.8446 C.ar    1  UNL1       -0.0022
     27 C         140.9644  141.7401  167.9060 C.ar    1  UNL1       -0.0001
     28 C         140.3003  142.7165  168.8310 C.ar    1  UNL1        0.0023
     29 C         141.1027  143.4090  169.8923 C.ar    1  UNL1        0.0296
     30 C         142.5694  143.1251  170.0287 C.ar    1  UNL1        0.1401
     31 F         143.3718  143.8176  171.0901 F       1  UNL1       -0.2042
     32 C         143.2334  142.1487  169.1037 C.ar    1  UNL1        0.0296
     33 C         142.4309  141.4562  168.0423 C.ar    1  UNL1        0.0023
@<TRIPOS>BOND
     1    15    16    1
     2    16    17    1
     3    16    18    1
     4    16    11    1
     5    11    12   am
     6    12    13    2
     7    12     1    1
     8     1     2    1
     9     2     3   ar
    10     3     4   ar
    11     4     5   ar
    12     5     6   ar
    13     6     7   ar
    14     7     8    1
    15     8     9    2
    16     8    10   am
    17    10    19    1
    18    19    20    1
    19    20    21   ar
    20    21    22   ar
    21    22    23    1
    22    22    24   ar
    23    24    25   ar
    24    25    26   ar
    25    26    27    1
    26    27    28   ar
    27    28    29   ar
    28    29    30   ar
    29    30    31    1
    30    30    32   ar
    31    32    33   ar
    32    10     1    1
    33    26    20   ar
    34    33    27   ar
    35     7     2   ar
    36    11    14    1
@<TRIPOS>MOLECULE
*****
 33 36 0 0 0
SMALL
GASTEIGER

@<TRIPOS>ATOM
      1 C         141.0278  141.7845  162.5117 C.3     1  UNL1        0.1753
      2 C         140.7517  143.1911  162.0697 C.ar    1  UNL1        0.0089
      3 C         141.1944  143.9704  160.8670 C.ar    1  UNL1       -0.0021
      4 C         140.7488  145.3915  160.6885 C.ar    1  UNL1       -0.0003
      5 C         139.8605  146.0332  161.7128 C.ar    1  UNL1        0.0001
      6 C         139.4179  145.2539  162.9155 C.ar    1  UNL1        0.0043
      7 C         139.8635  143.8328  163.0940 C.ar    1  UNL1        0.0517
      8 C         139.5906  142.8228  164.1689 C.2     1  UNL1        0.2496
      9 O         138.7463  143.0406  165.3895 O.2     1  UNL1       -0.2699
     10 N         140.3102  141.5569  163.8090 N.am    1  UNL1       -0.2620
     11 N         141.3366  139.4083  161.5073 N.am    1  UNL1       -0.3059
     12 C         141.8732  140.7816  161.7839 C.2     1  UNL1        0.2448
     13 O         143.2549  141.1518  161.3328 O.2     1  UNL1       -0.2729
     14 H         140.4297  139.1653  161.8034 H       1  UNL1        0.1494
     15 C         142.7750  137.9594  162.0832 C.3     1  UNL1        0.0196
     16 C         142.1820  138.4054  160.7796 C.3     1  UNL1        0.0569
     17 C         141.5890  138.8514  159.4760 C.3     1  UNL1        0.0196
     18 C         143.0273  137.4025  160.0519 C.3     1  UNL1        0.0196
     19 C         140.3119  140.2864  164.6065 C.3     1  UNL1        0.1212
     20 C         140.4860  140.3358  166.0955 C.ar    1  UNL1       -0.0001
     21 C         139.3226  140.0451  166.9967 C.ar    1  UNL1        0.0270
     22 C         139.4967  140.0944  168.4857 C.ar    1  UNL1        0.1399
     23 F         138.3334  139.8037  169.3870 F       1  UNL1       -0.2042
     24 C         140.8342  140.4345  169.0736 C.ar    1  UNL1        0.0296
     25 C         141.9975  140.7251  168.1725 C.ar    1  UNL1        0.0020
     26 C         141.8235  140.6758  166.6834 C.ar    1  UNL1       -0.0022
     27 C         142.9868  140.9665  165.7822 C.ar    1  UNL1       -0.0001
     28 C         143.3633  142.3862  165.4779 C.ar    1  UNL1        0.0023
     29 C         144.5267  142.6768  164.5767 C.ar    1  UNL1        0.0296
     30 C         145.3135  141.5478  163.9799 C.ar    1  UNL1        0.1401
     31 F         146.4769  141.8385  163.0787 F       1  UNL1       -0.2042
     32 C         144.9370  140.1281  164.2842 C.ar    1  UNL1        0.0296
     33 C         143.7736  139.8374  165.1854 C.ar    1  UNL1        0.0023
@<TRIPOS>BOND
     1    15    16    1
     2    16    17    1
     3    16    18    1
     4    16    11    1
     5    11    12   am
     6    12    13    2
     7    12     1    1
     8     1     2    1
     9     2     3   ar
    10     3     4   ar
    11     4     5   ar
    12     5     6   ar
    13     6     7   ar
    14     7     8    1
    15     8     9    2
    16     8    10   am
    17    10    19    1
    18    19    20    1
    19    20    21   ar
    20    21    22   ar
    21    22    23    1
    22    22    24   ar
    23    24    25   ar
    24    25    26   ar
    25    26    27    1
    26    27    28   ar
    27    28    29   ar
    28    29    30   ar
    29    30    31    1
    30    30    32   ar
    31    32    33   ar
    32    10     1    1
    33    26    20   ar
    34    33    27   ar
    35     7     2   ar
    36    11    14    1
@<TRIPOS>MOLECULE
*****
 33 36 0 0 0
SMALL
GASTEIGER

@<TRIPOS>ATOM
      1 C         141.5987  141.0749  166.2666 C.3     1  UNL1        0.1753
      2 C         141.9408  140.9135  167.7182 C.ar    1  UNL1        0.0089
      3 C         143.1115  141.3805  168.5314 C.ar    1  UNL1       -0.0021
      4 C         143.1825  141.0617  169.9953 C.ar    1  UNL1       -0.0003
      5 C         142.0829  140.2760  170.6461 C.ar    1  UNL1        0.0001
      6 C         140.9122  139.8091  169.8329 C.ar    1  UNL1        0.0043
      7 C         140.8411  140.1278  168.3689 C.ar    1  UNL1        0.0517
      8 C         139.8195  139.8036  167.3196 C.2     1  UNL1        0.2496
      9 O         138.5521  139.0299  167.5323 O.2     1  UNL1       -0.2699
     10 N         140.2876  140.3889  166.0203 N.am    1  UNL1       -0.2620
     11 N         142.3429  143.2894  165.1299 N.am    1  UNL1       -0.3059
     12 C         142.4229  141.7956  165.2414 C.2     1  UNL1        0.2448
     13 O         143.3272  141.0228  164.3277 O.2     1  UNL1       -0.2729
     14 H         141.7494  143.7967  165.7296 H       1  UNL1        0.1494
     15 C         141.9793  144.0682  163.1905 C.3     1  UNL1        0.0196
     16 C         143.1671  144.0102  164.1047 C.3     1  UNL1        0.0569
     17 C         144.3550  143.9522  165.0189 C.3     1  UNL1        0.0196
     18 C         143.9913  144.7310  163.0795 C.3     1  UNL1        0.0196
     19 C         139.5707  140.3033  164.7055 C.3     1  UNL1        0.1212
     20 C         138.9782  141.5375  164.0926 C.ar    1  UNL1       -0.0001
     21 C         138.2886  142.5487  164.9598 C.ar    1  UNL1        0.0270
     22 C         137.6961  143.7829  164.3469 C.ar    1  UNL1        0.1399
     23 F         137.0065  144.7941  165.2142 F       1  UNL1       -0.2042
     24 C         137.7932  144.0060  162.8668 C.ar    1  UNL1        0.0296
     25 C         138.4827  142.9948  161.9995 C.ar    1  UNL1        0.0020
     26 C         139.0752  141.7606  162.6125 C.ar    1  UNL1       -0.0022
     27 C         139.7647  140.7494  161.7452 C.ar    1  UNL1       -0.0001
     28 C         141.2299  140.8856  161.4541 C.ar    1  UNL1        0.0023
     29 C         141.9194  139.8745  160.5869 C.ar    1  UNL1        0.0296
     30 C         141.1438  138.7271  160.0107 C.ar    1  UNL1        0.1401
     31 F         141.8333  137.7160  159.1435 F       1  UNL1       -0.2042
     32 C         139.6786  138.5909  160.3018 C.ar    1  UNL1        0.0296
     33 C         138.9891  139.6021  161.1691 C.ar    1  UNL1        0.0023
@<TRIPOS>BOND
     1    15    16    1
     2    16    17    1
     3    16    18    1
     4    16    11    1
     5    11    12   am
     6    12    13    2
     7    12     1    1
     8     1     2    1
     9     2     3   ar
    10     3     4   ar
    11     4     5   ar
    12     5     6   ar
    13     6     7   ar
    14     7     8    1
    15     8     9    2
    16     8    10   am
    17    10    19    1
    18    19    20    1
    19    20    21   ar
    20    21    22   ar
    21    22    23    1
    22    22    24   ar
    23    24    25   ar
    24    25    26   ar
    25    26    27    1
    26    27    28   ar
    27    28    29   ar
    28    29    30   ar
    29    30    31    1
    30    30    32   ar
    31    32    33   ar
    32    10     1    1
    33    26    20   ar
    34    33    27   ar
    35     7     2   ar
    36    11    14    1
@<TRIPOS>MOLECULE
*****
 33 36 0 0 0
SMALL
GASTEIGER

@<TRIPOS>ATOM
      1 C         141.7152  142.2069  163.3077 C.3     1  UNL1        0.1753
      2 C         141.0606  143.3931  162.6639 C.ar    1  UNL1        0.0089
      3 C         141.0776  143.9070  161.2548 C.ar    1  UNL1       -0.0021
      4 C         140.3100  145.1455  160.8989 C.ar    1  UNL1       -0.0003
      5 C         139.5253  145.8702  161.9520 C.ar    1  UNL1        0.0001
      6 C         139.5082  145.3563  163.3611 C.ar    1  UNL1        0.0043
      7 C         140.2759  144.1178  163.7171 C.ar    1  UNL1        0.0517
      8 C         140.4455  143.3794  165.0117 C.2     1  UNL1        0.2496
      9 O         139.8331  143.7560  166.3282 O.2     1  UNL1       -0.2699
     10 N         141.3351  142.1984  164.7587 N.am    1  UNL1       -0.2620
     11 N         142.1830  139.7642  162.5561 N.am    1  UNL1       -0.3059
     12 C         142.5953  141.2051  162.6210 C.2     1  UNL1        0.2448
     13 O         143.8878  141.6439  161.9991 O.2     1  UNL1       -0.2729
     14 H         141.3346  139.4762  162.9643 H       1  UNL1        0.1494
     15 C         143.8959  138.6429  163.1113 C.3     1  UNL1        0.0196
     16 C         143.0632  138.7624  161.8694 C.3     1  UNL1        0.0569
     17 C         142.2304  138.8819  160.6276 C.3     1  UNL1        0.0196
     18 C         143.9433  137.7606  161.1828 C.3     1  UNL1        0.0196
     19 C         141.7684  141.1867  165.7778 C.3     1  UNL1        0.1212
     20 C         140.8665  140.8458  166.9268 C.ar    1  UNL1       -0.0001
     21 C         141.1514  141.3962  168.2928 C.ar    1  UNL1        0.0270
     22 C         140.2494  141.0553  169.4418 C.ar    1  UNL1        0.1399
     23 F         140.5343  141.6057  170.8079 F       1  UNL1       -0.2042
     24 C         139.0626  140.1640  169.2249 C.ar    1  UNL1        0.0296
     25 C         138.7777  139.6136  167.8590 C.ar    1  UNL1        0.0020
     26 C         139.6796  139.9545  166.7099 C.ar    1  UNL1       -0.0022
     27 C         139.3947  139.4041  165.3439 C.ar    1  UNL1       -0.0001
     28 C         139.9579  138.0742  164.9387 C.ar    1  UNL1        0.0023
     29 C         139.6730  137.5238  163.5728 C.ar    1  UNL1        0.0296
     30 C         138.8249  138.3034  162.6119 C.ar    1  UNL1        0.1401
     31 F         138.5399  137.7530  161.2460 F       1  UNL1       -0.2042
     32 C         138.2617  139.6333  163.0171 C.ar    1  UNL1        0.0296
     33 C         138.5467  140.1836  164.3832 C.ar    1  UNL1        0.0023
@<TRIPOS>BOND
     1    15    16    1
     2    16    17    1
     3    16    18    1
     4    16    11    1
     5    11    12   am
     6    12    13    2
     7    12     1    1
     8     1     2    1
     9     2     3   ar
    10     3     4   ar
    11     4     5   ar
    12     5     6   ar
    13     6     7   ar
    14     7     8    1
    15     8     9    2
    16     8    10   am
    17    10    19    1
    18    19    20    1
    19    20    21   ar
    20    21    22   ar
    21    22    23    1
    22    22    24   ar
    23    24    25   ar
    24    25    26   ar
    25    26    27    1
    26    27    28   ar
    27    28    29   ar
    28    29    30   ar
    29    30    31    1
    30    30    32   ar
    31    32    33   ar
    32    10     1    1
    33    26    20   ar
    34    33    27   ar
    35     7     2   ar
    36    11    14    1
@<TRIPOS>MOLECULE
*****
 33 36 0 0 0
SMALL
GASTEIGER

@<TRIPOS>ATOM
      1 C         140.4134  142.2615  163.3329 C.3     1  UNL1        0.1753
      2 C         140.2435  142.9516  162.0119 C.ar    1  UNL1        0.0089
      3 C         139.3393  142.6796  160.8464 C.ar    1  UNL1       -0.0021
      4 C         139.3944  143.5598  159.6331 C.ar    1  UNL1       -0.0003
      5 C         140.3536  144.7120  159.5853 C.ar    1  UNL1        0.0001
      6 C         141.2578  144.9840  160.7508 C.ar    1  UNL1        0.0043
      7 C         141.2027  144.1038  161.9641 C.ar    1  UNL1        0.0517
      8 C         141.9654  144.1258  163.2555 C.2     1  UNL1        0.2496
      9 O         143.0292  145.1131  163.6345 O.2     1  UNL1       -0.2699
     10 N         141.4776  142.9872  164.1015 N.am    1  UNL1       -0.2620
     11 N         140.0950  139.6837  163.3929 N.am    1  UNL1       -0.3059
     12 C         139.6525  141.0572  163.8027 C.2     1  UNL1        0.2448
     13 O         138.4494  141.2262  164.6822 O.2     1  UNL1       -0.2729
     14 H         140.8847  139.5727  162.8157 H       1  UNL1        0.1494
     15 C         140.2231  138.3880  165.0676 C.3     1  UNL1        0.0196
     16 C         139.3342  138.4793  163.8628 C.3     1  UNL1        0.0569
     17 C         138.4454  138.5708  162.6579 C.3     1  UNL1        0.0196
     18 C         138.5734  137.2751  164.3326 C.3     1  UNL1        0.0196
     19 C         141.9678  142.6361  165.4749 C.3     1  UNL1        0.1212
     20 C         142.5879  141.2942  165.7296 C.ar    1  UNL1       -0.0001
     21 C         143.4002  140.6280  164.6589 C.ar    1  UNL1        0.0270
     22 C         144.0203  139.2861  164.9136 C.ar    1  UNL1        0.1399
     23 F         144.8327  138.6199  163.8429 F       1  UNL1       -0.2042
     24 C         143.8281  138.6104  166.2389 C.ar    1  UNL1        0.0296
     25 C         143.0158  139.2766  167.3095 C.ar    1  UNL1        0.0020
     26 C         142.3957  140.6185  167.0549 C.ar    1  UNL1       -0.0022
     27 C         141.5834  141.2847  168.1256 C.ar    1  UNL1       -0.0001
     28 C         140.2665  140.6992  168.5415 C.ar    1  UNL1        0.0023
     29 C         139.4542  141.3653  169.6122 C.ar    1  UNL1        0.0296
     30 C         139.9588  142.6170  170.2670 C.ar    1  UNL1        0.1401
     31 F         139.1465  143.2832  171.3377 F       1  UNL1       -0.2042
     32 C         141.2757  143.2025  169.8510 C.ar    1  UNL1        0.0296
     33 C         142.0880  142.5363  168.7803 C.ar    1  UNL1        0.0023
@<TRIPOS>BOND
     1    15    16    1
     2    16    17    1
     3    16    18    1
     4    16    11    1
     5    11    12   am
     6    12    13    2
     7    12     1    1
     8     1     2    1
     9     2     3   ar
    10     3     4   ar
    11     4     5   ar
    12     5     6   ar
    13     6     7   ar
    14     7     8    1
    15     8     9    2
    16     8    10   am
    17    10    19    1
    18    19    20    1
    19    20    21   ar
    20    21    22   ar
    21    22    23    1
    22    22    24   ar
    23    24    25   ar
    24    25    26   ar
    25    26    27    1
    26    27    28   ar
    27    28    29   ar
    28    29    30   ar
    29    30    31    1
    30    30    32   ar
    31    32    33   ar
    32    10     1    1
    33    26    20   ar
    34    33    27   ar
    35     7     2   ar
    36    11    14    1
@<TRIPOS>MOLECULE
*****
 33 36 0 0 0
SMALL
GASTEIGER

@<TRIPOS>ATOM
      1 C         141.9909  141.9713  162.9793 C.3     1  UNL1        0.1753
      2 C         142.5265  142.2353  161.6033 C.ar    1  UNL1        0.0089
      3 C         142.2531  143.3275  160.6123 C.ar    1  UNL1       -0.0021
      4 C         142.9538  143.3296  159.2861 C.ar    1  UNL1       -0.0003
      5 C         143.9280  142.2393  158.9509 C.ar    1  UNL1        0.0001
      6 C         144.2014  141.1471  159.9419 C.ar    1  UNL1        0.0043
      7 C         143.5007  141.1451  161.2681 C.ar    1  UNL1        0.0517
      8 C         143.5671  140.2073  162.4370 C.2     1  UNL1        0.2496
      9 O         144.4174  138.9752  162.5316 O.2     1  UNL1       -0.2699
     10 N         142.6340  140.7179  163.4946 N.am    1  UNL1       -0.2620
     11 N         139.5490  142.8032  163.2883 N.am    1  UNL1       -0.3059
     12 C         140.9881  142.8129  163.7115 C.2     1  UNL1        0.2448
     13 O         141.4243  143.6642  164.8669 O.2     1  UNL1       -0.2729
     14 H         139.2626  142.2445  162.5300 H       1  UNL1        0.1494
     15 C         138.1766  142.4652  164.8702 C.3     1  UNL1        0.0196
     16 C         138.5462  143.6449  164.0206 C.3     1  UNL1        0.0569
     17 C         138.9159  144.8245  163.1709 C.3     1  UNL1        0.0196
     18 C         137.5435  144.4864  164.7528 C.3     1  UNL1        0.0196
     19 C         142.3873  140.0861  164.8325 C.3     1  UNL1        0.1212
     20 C         141.0523  139.4745  165.1384 C.ar    1  UNL1       -0.0001
     21 C         140.3838  138.5893  164.1286 C.ar    1  UNL1        0.0270
     22 C         139.0487  137.9777  164.4345 C.ar    1  UNL1        0.1399
     23 F         138.3802  137.0924  163.4247 F       1  UNL1       -0.2042
     24 C         138.3822  138.2512  165.7501 C.ar    1  UNL1        0.0296
     25 C         139.0506  139.1364  166.7598 C.ar    1  UNL1        0.0020
     26 C         140.3857  139.7480  166.4540 C.ar    1  UNL1       -0.0022
     27 C         141.0542  140.6332  167.4637 C.ar    1  UNL1       -0.0001
     28 C         140.5273  142.0149  167.7154 C.ar    1  UNL1        0.0023
     29 C         141.1958  142.9001  168.7251 C.ar    1  UNL1        0.0296
     30 C         142.3911  142.4036  169.4832 C.ar    1  UNL1        0.1401
     31 F         143.0596  143.2887  170.4930 F       1  UNL1       -0.2042
     32 C         142.9180  141.0219  169.2315 C.ar    1  UNL1        0.0296
     33 C         142.2495  140.1367  168.2217 C.ar    1  UNL1        0.0023
@<TRIPOS>BOND
     1    15    16    1
     2    16    17    1
     3    16    18    1
     4    16    11    1
     5    11    12   am
     6    12    13    2
     7    12     1    1
     8     1     2    1
     9     2     3   ar
    10     3     4   ar
    11     4     5   ar
    12     5     6   ar
    13     6     7   ar
    14     7     8    1
    15     8     9    2
    16     8    10   am
    17    10    19    1
    18    19    20    1
    19    20    21   ar
    20    21    22   ar
    21    22    23    1
    22    22    24   ar
    23    24    25   ar
    24    25    26   ar
    25    26    27    1
    26    27    28   ar
    27    28    29   ar
    28    29    30   ar
    29    30    31    1
    30    30    32   ar
    31    32    33   ar
    32    10     1    1
    33    26    20   ar
    34    33    27   ar
    35     7     2   ar
    36    11    14    1
