@<TRIPOS>MOLECULE
*****
 40 43 0 0 0
SMALL
GASTEIGER

@<TRIPOS>ATOM
      1 N         139.4624  139.8489  160.8842 N.3     1  UNL1       -0.2711
      2 C         139.5991  139.4761  159.4378 C.3     1  UNL1        0.0933
      3 C         138.2627  140.0946  159.1520 C.3     1  UNL1        0.1035
      4 C         138.1260  140.4674  160.5985 C.3     1  UNL1        0.0933
      5 C         142.0075  139.3276  164.5585 C.3     1  UNL1        0.1085
      6 O         142.9741  138.3493  165.1574 O.3     1  UNL1       -0.3826
      7 C         141.1566  140.5531  164.4033 C.3     1  UNL1        0.0326
      8 C         140.3082  140.7269  163.1785 C.3     1  UNL1        0.0187
      9 C         140.3107  139.6752  162.1090 C.3     1  UNL1        0.0578
     10 C         141.1616  138.4497  162.2642 C.3     1  UNL1        0.0187
     11 C         142.0100  138.2759  163.4890 C.3     1  UNL1        0.0326
     12 H         143.2848  138.6844  166.0130 H       1  UNL1        0.2107
     13 C         143.0071  141.4635  168.3911 C.ar    1  UNL1        0.2207
     14 N         143.1087  142.1867  167.0809 N.ar    1  UNL1       -0.2107
     15 C         142.7755  141.4747  165.8034 C.ar    1  UNL1        0.1000
     16 C         142.3407  140.0395  165.8360 C.ar    1  UNL1        0.0208
     17 C         142.2390  139.3163  167.1462 C.ar    1  UNL1       -0.0001
     18 C         142.5722  140.0283  168.4237 C.ar    1  UNL1        0.0311
     19 C         142.4706  139.3050  169.7339 C.3     1  UNL1        0.0359
     20 C         142.3263  143.0732  170.3133 C.3     1  UNL1        0.2542
     21 O         143.3403  142.1754  169.6686 O.3     1  UNL1       -0.4563
     22 N         137.4144  140.2683  157.9272 N.am    1  UNL1       -0.3018
     23 C         137.5032  141.5337  157.1266 C.2     1  UNL1        0.2426
     24 O         138.4404  142.6253  157.5509 O.2     1  UNL1       -0.2733
     25 H         136.7993  139.5518  157.6487 H       1  UNL1        0.1495
     26 C         136.6549  141.7074  155.9018 C.3     1  UNL1        0.1759
     27 N         135.1603  141.7435  156.0236 N.am    1  UNL1       -0.2931
     28 C         134.3717  140.4691  155.9610 C.2     1  UNL1        0.2462
     29 O         135.0777  139.1586  155.7766 O.2     1  UNL1       -0.2701
     30 H         134.6970  142.6037  156.1446 H       1  UNL1        0.1502
     31 C         132.8771  140.5053  156.0828 C.ar    1  UNL1        0.0533
     32 C         132.0768  141.4373  155.2222 C.ar    1  UNL1        0.0045
     33 C         130.5822  141.4735  155.3440 C.ar    1  UNL1        0.0001
     34 C         129.8879  140.5776  156.3266 C.ar    1  UNL1        0.0039
     35 C         130.6882  139.6456  157.1872 C.ar    1  UNL1        0.0716
     36 C         132.1828  139.6094  157.0654 C.ar    1  UNL1        0.0084
     37 C         129.9939  138.7496  158.1698 C.3     1  UNL1        0.4186
     38 F         129.2996  137.8538  159.1522 F       1  UNL1       -0.1659
     39 F         131.3224  138.2366  158.6406 F       1  UNL1       -0.1659
     40 F         128.6653  139.2628  157.6989 F       1  UNL1       -0.1659
@<TRIPOS>BOND
     1    20    21    1
     2    21    13    1
     3    13    14   ar
     4    14    15   ar
     5    15    16   ar
     6    16     5    1
     7     5     6    1
     8     5     7    1
     9     7     8    1
    10     8     9    1
    11     9     1    1
    12     1     2    1
    13     2     3    1
    14     3    22    1
    15    22    23   am
    16    23    24    2
    17    23    26    1
    18    26    27    1
    19    27    28   am
    20    28    29    2
    21    28    31    1
    22    31    32   ar
    23    32    33   ar
    24    33    34   ar
    25    34    35   ar
    26    35    37    1
    27    37    38    1
    28    37    39    1
    29    37    40    1
    30    35    36   ar
    31     3     4    1
    32     9    10    1
    33    10    11    1
    34    16    17   ar
    35    17    18   ar
    36    18    19    1
    37    18    13   ar
    38    11     5    1
    39     4     1    1
    40    36    31   ar
    41     6    12    1
    42    22    25    1
    43    27    30    1
@<TRIPOS>MOLECULE
*****
 40 43 0 0 0
SMALL
GASTEIGER

@<TRIPOS>ATOM
      1 N         139.9264  142.5724  160.5309 N.3     1  UNL1       -0.2711
      2 C         140.1270  142.9812  159.1017 C.3     1  UNL1        0.0933
      3 C         138.6817  142.6972  158.8177 C.3     1  UNL1        0.1035
      4 C         138.4811  142.2885  160.2469 C.3     1  UNL1        0.0933
      5 C         142.5671  142.3077  164.1650 C.3     1  UNL1        0.1085
      6 O         143.8448  142.8820  164.7012 O.3     1  UNL1       -0.3826
      7 C         141.3139  141.4871  164.0872 C.3     1  UNL1        0.0326
      8 C         140.4336  141.5753  162.8758 C.3     1  UNL1        0.0187
      9 C         140.8065  142.4841  161.7423 C.3     1  UNL1        0.0578
     10 C         142.0597  143.3048  161.8201 C.3     1  UNL1        0.0187
     11 C         142.9400  143.2165  163.0315 C.3     1  UNL1        0.0326
     12 H         144.0267  142.5048  165.5762 H       1  UNL1        0.2107
     13 C         142.7795  140.1795  168.1242 C.ar    1  UNL1        0.2207
     14 N         142.4235  139.4183  166.8817 N.ar    1  UNL1       -0.2107
     15 C         142.3527  140.1277  165.5620 C.ar    1  UNL1        0.1000
     16 C         142.6379  141.5983  165.4848 C.ar    1  UNL1        0.0208
     17 C         142.9939  142.3595  166.7272 C.ar    1  UNL1       -0.0001
     18 C         143.0647  141.6500  168.0470 C.ar    1  UNL1        0.0311
     19 C         143.4208  142.4113  169.2895 C.3     1  UNL1        0.0359
     20 C         141.6207  139.3413  170.2932 C.3     1  UNL1        0.2542
     21 O         142.8504  139.4700  169.4440 O.3     1  UNL1       -0.4563
     22 N         137.8016  142.7855  157.6062 N.am    1  UNL1       -0.3018
     23 C         137.3577  141.5339  156.9089 C.2     1  UNL1        0.2426
     24 O         137.7939  140.1940  157.4229 O.2     1  UNL1       -0.2733
     25 H         137.5152  143.6650  157.2688 H       1  UNL1        0.1495
     26 C         136.4776  141.6222  155.6974 C.3     1  UNL1        0.1759
     27 N         134.9858  141.6371  155.8537 N.am    1  UNL1       -0.2931
     28 C         134.2165  140.3495  155.8313 C.2     1  UNL1        0.2462
     29 O         134.9390  139.0472  155.6526 O.2     1  UNL1       -0.2701
     30 H         134.5116  142.4919  155.9709 H       1  UNL1        0.1502
     31 C         132.7247  140.3644  155.9875 C.ar    1  UNL1        0.0533
     32 C         131.9145  141.4529  155.3484 C.ar    1  UNL1        0.0045
     33 C         130.4227  141.4678  155.5046 C.ar    1  UNL1        0.0001
     34 C         129.7412  140.3941  156.3001 C.ar    1  UNL1        0.0039
     35 C         130.5514  139.3056  156.9393 C.ar    1  UNL1        0.0716
     36 C         132.0432  139.2907  156.7830 C.ar    1  UNL1        0.0084
     37 C         129.8699  138.2319  157.7348 C.3     1  UNL1        0.4186
     38 F         129.1885  137.1583  158.5302 F       1  UNL1       -0.1659
     39 F         129.6367  139.2068  158.8507 F       1  UNL1       -0.1659
     40 F         130.1032  137.2571  156.6189 F       1  UNL1       -0.1659
@<TRIPOS>BOND
     1    20    21    1
     2    21    13    1
     3    13    14   ar
     4    14    15   ar
     5    15    16   ar
     6    16     5    1
     7     5     6    1
     8     5     7    1
     9     7     8    1
    10     8     9    1
    11     9     1    1
    12     1     2    1
    13     2     3    1
    14     3    22    1
    15    22    23   am
    16    23    24    2
    17    23    26    1
    18    26    27    1
    19    27    28   am
    20    28    29    2
    21    28    31    1
    22    31    32   ar
    23    32    33   ar
    24    33    34   ar
    25    34    35   ar
    26    35    37    1
    27    37    38    1
    28    37    39    1
    29    37    40    1
    30    35    36   ar
    31     3     4    1
    32     9    10    1
    33    10    11    1
    34    16    17   ar
    35    17    18   ar
    36    18    19    1
    37    18    13   ar
    38    11     5    1
    39     4     1    1
    40    36    31   ar
    41     6    12    1
    42    22    25    1
    43    27    30    1
@<TRIPOS>MOLECULE
*****
 40 43 0 0 0
SMALL
GASTEIGER

@<TRIPOS>ATOM
      1 N         140.9421  139.7626  161.0372 N.3     1  UNL1       -0.2711
      2 C         141.6109  140.1344  159.7470 C.3     1  UNL1        0.0933
      3 C         141.4139  138.7358  159.2419 C.3     1  UNL1        0.1035
      4 C         140.7451  138.3640  160.5320 C.3     1  UNL1        0.0933
      5 C         139.9412  141.9412  164.8453 C.3     1  UNL1        0.1085
      6 O         139.4298  143.2738  165.3063 O.3     1  UNL1       -0.3826
      7 C         140.4528  140.5322  164.8996 C.3     1  UNL1        0.0326
      8 C         140.7864  139.8060  163.6302 C.3     1  UNL1        0.0187
      9 C         140.6085  140.4887  162.3066 C.3     1  UNL1        0.0578
     10 C         140.0969  141.8978  162.2522 C.3     1  UNL1        0.0187
     11 C         139.7633  142.6240  163.5216 C.3     1  UNL1        0.0326
     12 H         139.3747  143.2816  166.2747 H       1  UNL1        0.2107
     13 C         139.9423  141.2813  169.2966 C.ar    1  UNL1        0.2207
     14 N         139.5547  140.1648  168.3730 N.ar    1  UNL1       -0.2107
     15 C         139.5544  140.3847  166.8892 C.ar    1  UNL1        0.1000
     16 C         139.9416  141.7212  166.3291 C.ar    1  UNL1        0.0208
     17 C         140.3291  142.8377  167.2527 C.ar    1  UNL1       -0.0001
     18 C         140.3295  142.6177  168.7365 C.ar    1  UNL1        0.0311
     19 C         140.7171  143.7343  169.6601 C.3     1  UNL1        0.0359
     20 C         141.2146  140.6899  171.4832 C.3     1  UNL1        0.2542
     21 O         139.9426  141.0613  170.7804 O.3     1  UNL1       -0.4563
     22 N         141.7475  138.0097  157.9724 N.am    1  UNL1       -0.3018
     23 C         140.6651  137.6907  156.9842 C.2     1  UNL1        0.2426
     24 O         139.2491  138.0978  157.2654 O.2     1  UNL1       -0.2733
     25 H         142.6769  137.7425  157.7878 H       1  UNL1        0.1495
     26 C         140.9987  136.9646  155.7147 C.3     1  UNL1        0.1759
     27 N         141.0652  135.4662  155.7031 N.am    1  UNL1       -0.2931
     28 C         142.3171  134.7675  156.1445 C.2     1  UNL1        0.2462
     29 O         143.5023  135.5675  156.5976 O.2     1  UNL1       -0.2701
     30 H         140.2872  134.9412  155.4057 H       1  UNL1        0.1502
     31 C         142.3836  133.2691  156.1329 C.ar    1  UNL1        0.0533
     32 C         141.4867  132.4856  155.2210 C.ar    1  UNL1        0.0045
     33 C         141.5532  130.9871  155.2093 C.ar    1  UNL1        0.0001
     34 C         142.5166  130.2721  156.1098 C.ar    1  UNL1        0.0039
     35 C         143.4135  131.0556  157.0217 C.ar    1  UNL1        0.0716
     36 C         143.3470  132.5541  157.0333 C.ar    1  UNL1        0.0084
     37 C         144.3769  130.3406  157.9221 C.3     1  UNL1        0.4186
     38 F         145.3402  129.6257  158.8225 F       1  UNL1       -0.1659
     39 F         143.6477  129.0525  157.6794 F       1  UNL1       -0.1659
     40 F         145.1060  131.6289  158.1649 F       1  UNL1       -0.1659
@<TRIPOS>BOND
     1    20    21    1
     2    21    13    1
     3    13    14   ar
     4    14    15   ar
     5    15    16   ar
     6    16     5    1
     7     5     6    1
     8     5     7    1
     9     7     8    1
    10     8     9    1
    11     9     1    1
    12     1     2    1
    13     2     3    1
    14     3    22    1
    15    22    23   am
    16    23    24    2
    17    23    26    1
    18    26    27    1
    19    27    28   am
    20    28    29    2
    21    28    31    1
    22    31    32   ar
    23    32    33   ar
    24    33    34   ar
    25    34    35   ar
    26    35    37    1
    27    37    38    1
    28    37    39    1
    29    37    40    1
    30    35    36   ar
    31     3     4    1
    32     9    10    1
    33    10    11    1
    34    16    17   ar
    35    17    18   ar
    36    18    19    1
    37    18    13   ar
    38    11     5    1
    39     4     1    1
    40    36    31   ar
    41     6    12    1
    42    22    25    1
    43    27    30    1
@<TRIPOS>MOLECULE
*****
 40 43 0 0 0
SMALL
GASTEIGER

@<TRIPOS>ATOM
      1 N         142.9868  139.5079  161.0085 N.3     1  UNL1       -0.2711
      2 C         143.2829  139.7570  159.5592 C.3     1  UNL1        0.0933
      3 C         142.7876  138.3820  159.2217 C.3     1  UNL1        0.1035
      4 C         142.4915  138.1329  160.6709 C.3     1  UNL1        0.0933
      5 C         143.4095  141.8968  164.7985 C.3     1  UNL1        0.1085
      6 O         144.3917  142.7996  165.4842 O.3     1  UNL1       -0.3826
      7 C         142.1612  141.1041  164.5470 C.3     1  UNL1        0.0326
      8 C         142.0203  140.3077  163.2836 C.3     1  UNL1        0.0187
      9 C         143.1276  140.3042  162.2718 C.3     1  UNL1        0.0578
     10 C         144.3759  141.0969  162.5234 C.3     1  UNL1        0.0187
     11 C         144.5169  141.8932  163.7868 C.3     1  UNL1        0.0326
     12 H         144.0234  143.0935  166.3321 H       1  UNL1        0.2107
     13 C         141.1108  142.8481  168.5482 C.ar    1  UNL1        0.2207
     14 N         140.4217  142.8848  167.2164 N.ar    1  UNL1       -0.2107
     15 C         141.1879  142.5677  165.9665 C.ar    1  UNL1        0.1000
     16 C         142.6433  142.2139  166.0484 C.ar    1  UNL1        0.0208
     17 C         143.3324  142.1772  167.3802 C.ar    1  UNL1       -0.0001
     18 C         142.5661  142.4944  168.6301 C.ar    1  UNL1        0.0311
     19 C         143.2553  142.4577  169.9620 C.3     1  UNL1        0.0359
     20 C         139.5698  142.0874  170.4967 C.3     1  UNL1        0.2542
     21 O         140.3445  143.1653  169.7981 O.3     1  UNL1       -0.4563
     22 N         142.6468  137.5857  157.9582 N.am    1  UNL1       -0.3018
     23 C         141.4051  137.7126  157.1263 C.2     1  UNL1        0.2426
     24 O         140.3043  138.6356  157.5578 O.2     1  UNL1       -0.2733
     25 H         143.3693  136.9799  157.6751 H       1  UNL1        0.1495
     26 C         141.2642  136.9163  155.8629 C.3     1  UNL1        0.1759
     27 N         141.2468  135.4175  155.9190 N.am    1  UNL1       -0.2931
     28 C         142.5352  134.6556  156.0174 C.2     1  UNL1        0.2462
     29 O         143.8409  135.3926  156.0596 O.2     1  UNL1       -0.2701
     30 H         140.3897  134.9338  155.8913 H       1  UNL1        0.1502
     31 C         142.5177  133.1568  156.0735 C.ar    1  UNL1        0.0533
     32 C         141.5896  132.3837  155.1841 C.ar    1  UNL1        0.0045
     33 C         141.5721  130.8849  155.2402 C.ar    1  UNL1        0.0001
     34 C         142.4828  130.1591  156.1858 C.ar    1  UNL1        0.0039
     35 C         143.4108  130.9321  157.0751 C.ar    1  UNL1        0.0716
     36 C         143.4283  132.4310  157.0190 C.ar    1  UNL1        0.0084
     37 C         144.3215  130.2063  158.0207 C.3     1  UNL1        0.4186
     38 F         145.2321  129.4806  158.9661 F       1  UNL1       -0.1659
     39 F         145.4491  131.1165  157.6333 F       1  UNL1       -0.1659
     40 F         143.1938  129.2962  158.4081 F       1  UNL1       -0.1659
@<TRIPOS>BOND
     1    20    21    1
     2    21    13    1
     3    13    14   ar
     4    14    15   ar
     5    15    16   ar
     6    16     5    1
     7     5     6    1
     8     5     7    1
     9     7     8    1
    10     8     9    1
    11     9     1    1
    12     1     2    1
    13     2     3    1
    14     3    22    1
    15    22    23   am
    16    23    24    2
    17    23    26    1
    18    26    27    1
    19    27    28   am
    20    28    29    2
    21    28    31    1
    22    31    32   ar
    23    32    33   ar
    24    33    34   ar
    25    34    35   ar
    26    35    37    1
    27    37    38    1
    28    37    39    1
    29    37    40    1
    30    35    36   ar
    31     3     4    1
    32     9    10    1
    33    10    11    1
    34    16    17   ar
    35    17    18   ar
    36    18    19    1
    37    18    13   ar
    38    11     5    1
    39     4     1    1
    40    36    31   ar
    41     6    12    1
    42    22    25    1
    43    27    30    1
@<TRIPOS>MOLECULE
*****
 40 43 0 0 0
SMALL
GASTEIGER

@<TRIPOS>ATOM
      1 N         143.0929  139.9087  159.3325 N.3     1  UNL1       -0.2711
      2 C         142.6096  139.9082  160.7526 C.3     1  UNL1        0.0933
      3 C         143.1185  141.3085  160.9263 C.3     1  UNL1        0.1035
      4 C         143.6018  141.3090  159.5062 C.3     1  UNL1        0.0933
      5 C         143.0383  136.9392  155.9519 C.3     1  UNL1        0.1085
      6 O         143.3935  136.8472  154.4974 O.3     1  UNL1       -0.3826
      7 C         142.5500  136.5365  157.3118 C.3     1  UNL1        0.0326
      8 C         142.5682  137.5263  158.4387 C.3     1  UNL1        0.0187
      9 C         143.0746  138.9188  158.2057 C.3     1  UNL1        0.0578
     10 C         143.5629  139.3216  156.8458 C.3     1  UNL1        0.0187
     11 C         143.5447  138.3317  155.7189 C.3     1  UNL1        0.0326
     12 H         143.1947  135.9554  154.1718 H       1  UNL1        0.2107
     13 C         141.8891  132.6657  155.1356 C.ar    1  UNL1        0.2207
     14 N         142.4847  133.0424  156.4597 N.ar    1  UNL1       -0.2107
     15 C         142.8678  134.4669  156.7318 C.ar    1  UNL1        0.1000
     16 C         142.6552  135.5147  155.6798 C.ar    1  UNL1        0.0208
     17 C         142.0596  135.1381  154.3556 C.ar    1  UNL1       -0.0001
     18 C         141.6765  133.7136  154.0836 C.ar    1  UNL1        0.0311
     19 C         141.0809  133.3369  152.7594 C.3     1  UNL1        0.0359
     20 C         142.5355  130.1551  154.9657 C.3     1  UNL1        0.2542
     21 O         141.5060  131.2412  154.8635 O.3     1  UNL1       -0.4563
     22 N         143.1367  142.2983  162.0532 N.am    1  UNL1       -0.3018
     23 C         144.3801  142.4792  162.8726 C.2     1  UNL1        0.2426
     24 O         145.6052  141.6702  162.5650 O.2     1  UNL1       -0.2733
     25 H         142.3326  142.8293  162.2550 H       1  UNL1        0.1495
     26 C         144.3983  143.4690  163.9995 C.3     1  UNL1        0.1759
     27 N         144.0989  143.0183  165.3985 N.am    1  UNL1       -0.2931
     28 C         142.6930  142.6714  165.7900 C.2     1  UNL1        0.2462
     29 O         141.5866  142.7753  164.7825 O.2     1  UNL1       -0.2701
     30 H         144.8250  142.9501  166.0597 H       1  UNL1        0.1502
     31 C         142.3936  142.2207  167.1890 C.ar    1  UNL1        0.0533
     32 C         143.4250  142.3824  168.2660 C.ar    1  UNL1        0.0045
     33 C         143.1256  141.9317  169.6650 C.ar    1  UNL1        0.0001
     34 C         141.7947  141.3192  169.9869 C.ar    1  UNL1        0.0039
     35 C         140.7633  141.1575  168.9100 C.ar    1  UNL1        0.0716
     36 C         141.0627  141.6082  167.5110 C.ar    1  UNL1        0.0084
     37 C         139.4324  140.5450  169.2320 C.3     1  UNL1        0.4186
     38 F         138.1016  139.9326  169.5539 F       1  UNL1       -0.1659
     39 F         139.6800  139.4718  168.2137 F       1  UNL1       -0.1659
     40 F         139.1848  141.6183  170.2503 F       1  UNL1       -0.1659
@<TRIPOS>BOND
     1    20    21    1
     2    21    13    1
     3    13    14   ar
     4    14    15   ar
     5    15    16   ar
     6    16     5    1
     7     5     6    1
     8     5     7    1
     9     7     8    1
    10     8     9    1
    11     9     1    1
    12     1     2    1
    13     2     3    1
    14     3    22    1
    15    22    23   am
    16    23    24    2
    17    23    26    1
    18    26    27    1
    19    27    28   am
    20    28    29    2
    21    28    31    1
    22    31    32   ar
    23    32    33   ar
    24    33    34   ar
    25    34    35   ar
    26    35    37    1
    27    37    38    1
    28    37    39    1
    29    37    40    1
    30    35    36   ar
    31     3     4    1
    32     9    10    1
    33    10    11    1
    34    16    17   ar
    35    17    18   ar
    36    18    19    1
    37    18    13   ar
    38    11     5    1
    39     4     1    1
    40    36    31   ar
    41     6    12    1
    42    22    25    1
    43    27    30    1
@<TRIPOS>MOLECULE
*****
 40 43 0 0 0
SMALL
GASTEIGER

@<TRIPOS>ATOM
      1 N         142.0428  138.9941  162.5527 N.3     1  UNL1       -0.2711
      2 C         142.1762  139.9278  161.3862 C.3     1  UNL1        0.0933
      3 C         141.8574  138.8014  160.4483 C.3     1  UNL1        0.1035
      4 C         141.7240  137.8678  161.6147 C.3     1  UNL1        0.0933
      5 C         142.4362  139.4030  167.0167 C.3     1  UNL1        0.1085
      6 O         143.2194  138.8267  168.1588 O.3     1  UNL1       -0.3826
      7 C         141.4508  140.2522  166.2698 C.3     1  UNL1        0.0326
      8 C         141.3197  140.1159  164.7817 C.3     1  UNL1        0.0187
      9 C         142.1739  139.1305  164.0407 C.3     1  UNL1        0.0578
     10 C         143.1593  138.2814  164.7876 C.3     1  UNL1        0.0187
     11 C         143.2905  138.4177  166.2757 C.3     1  UNL1        0.0326
     12 H         142.9436  139.2505  168.9865 H       1  UNL1        0.2107
     13 C         140.6894  141.7587  170.4298 C.ar    1  UNL1        0.2207
     14 N         139.8906  140.6632  169.7883 N.ar    1  UNL1       -0.2107
     15 C         140.4728  139.8780  168.6506 C.ar    1  UNL1        0.1000
     16 C         141.8540  140.1883  168.1544 C.ar    1  UNL1        0.0208
     17 C         142.6528  141.2838  168.7960 C.ar    1  UNL1       -0.0001
     18 C         142.0705  142.0690  169.9337 C.ar    1  UNL1        0.0311
     19 C         142.8695  143.1645  170.5753 C.3     1  UNL1        0.0359
     20 C         139.1173  143.6375  171.2950 C.3     1  UNL1        0.2542
     21 O         140.1072  142.5440  171.5676 O.3     1  UNL1       -0.4563
     22 N         141.7264  138.6652  158.9602 N.am    1  UNL1       -0.3018
     23 C         142.8885  138.9962  158.0715 C.2     1  UNL1        0.2426
     24 O         144.1817  139.4635  158.6708 O.2     1  UNL1       -0.2733
     25 H         140.8776  138.3585  158.5668 H       1  UNL1        0.1495
     26 C         142.7575  138.8599  156.5834 C.3     1  UNL1        0.1759
     27 N         142.9783  137.5279  155.9300 N.am    1  UNL1       -0.2931
     28 C         141.8776  136.5090  155.9133 C.2     1  UNL1        0.2462
     29 O         140.5561  136.8221  156.5501 O.2     1  UNL1       -0.2701
     30 H         143.8457  137.3224  155.5120 H       1  UNL1        0.1502
     31 C         142.0985  135.1770  155.2599 C.ar    1  UNL1        0.0533
     32 C         141.6156  134.9392  153.8598 C.ar    1  UNL1        0.0045
     33 C         141.8365  133.6072  153.2064 C.ar    1  UNL1        0.0001
     34 C         142.5403  132.5130  153.9530 C.ar    1  UNL1        0.0039
     35 C         143.0232  132.7508  155.3531 C.ar    1  UNL1        0.0716
     36 C         142.8023  134.0828  156.0065 C.ar    1  UNL1        0.0084
     37 C         143.7270  131.6566  156.0997 C.3     1  UNL1        0.4186
     38 F         144.4308  130.5625  156.8463 F       1  UNL1       -0.1659
     39 F         142.4278  130.9215  156.2470 F       1  UNL1       -0.1659
     40 F         145.0262  132.3918  155.9524 F       1  UNL1       -0.1659
@<TRIPOS>BOND
     1    20    21    1
     2    21    13    1
     3    13    14   ar
     4    14    15   ar
     5    15    16   ar
     6    16     5    1
     7     5     6    1
     8     5     7    1
     9     7     8    1
    10     8     9    1
    11     9     1    1
    12     1     2    1
    13     2     3    1
    14     3    22    1
    15    22    23   am
    16    23    24    2
    17    23    26    1
    18    26    27    1
    19    27    28   am
    20    28    29    2
    21    28    31    1
    22    31    32   ar
    23    32    33   ar
    24    33    34   ar
    25    34    35   ar
    26    35    37    1
    27    37    38    1
    28    37    39    1
    29    37    40    1
    30    35    36   ar
    31     3     4    1
    32     9    10    1
    33    10    11    1
    34    16    17   ar
    35    17    18   ar
    36    18    19    1
    37    18    13   ar
    38    11     5    1
    39     4     1    1
    40    36    31   ar
    41     6    12    1
    42    22    25    1
    43    27    30    1
@<TRIPOS>MOLECULE
*****
 40 43 0 0 0
SMALL
GASTEIGER

@<TRIPOS>ATOM
      1 N         140.6076  138.7932  161.2016 N.3     1  UNL1       -0.2711
      2 C         139.9022  138.5613  159.8983 C.3     1  UNL1        0.0933
      3 C         141.2236  138.3480  159.2211 C.3     1  UNL1        0.1035
      4 C         141.9289  138.5799  160.5244 C.3     1  UNL1        0.0933
      5 C         139.3003  139.7375  165.4027 C.3     1  UNL1        0.1085
      6 O         138.1869  139.4238  166.3576 O.3     1  UNL1       -0.3826
      7 C         140.5687  140.3276  164.8614 C.3     1  UNL1        0.0326
      8 C         141.0044  140.0129  163.4610 C.3     1  UNL1        0.0187
      9 C         140.1719  139.1080  162.6020 C.3     1  UNL1        0.0578
     10 C         138.9035  138.5178  163.1433 C.3     1  UNL1        0.0187
     11 C         138.4678  138.8326  164.5437 C.3     1  UNL1        0.0326
     12 H         138.3426  139.8826  167.1978 H       1  UNL1        0.2107
     13 C         140.6380  142.1253  168.9747 C.ar    1  UNL1        0.2207
     14 N         140.7358  142.7150  167.5990 N.ar    1  UNL1       -0.2107
     15 C         140.2899  141.9191  166.4083 C.ar    1  UNL1        0.1000
     16 C         139.7462  140.5334  166.5934 C.ar    1  UNL1        0.0208
     17 C         139.6484  139.9437  167.9691 C.ar    1  UNL1       -0.0001
     18 C         140.0943  140.7396  169.1597 C.ar    1  UNL1        0.0311
     19 C         139.9965  140.1498  170.5355 C.3     1  UNL1        0.0359
     20 C         142.5466  143.1330  170.4208 C.3     1  UNL1        0.2542
     21 O         141.0838  142.9213  170.1653 O.3     1  UNL1       -0.4563
     22 N         141.6592  138.0332  157.8207 N.am    1  UNL1       -0.3018
     23 C         141.6532  139.1076  156.7740 C.2     1  UNL1        0.2426
     24 O         141.2117  140.4968  157.1277 O.2     1  UNL1       -0.2733
     25 H         141.9490  137.1214  157.5885 H       1  UNL1        0.1495
     26 C         142.0889  138.7928  155.3735 C.3     1  UNL1        0.1759
     27 N         141.9641  137.3943  154.8458 N.am    1  UNL1       -0.2931
     28 C         142.9583  136.3475  155.2533 C.2     1  UNL1        0.2462
     29 O         144.0770  136.6993  156.1885 O.2     1  UNL1       -0.2701
     30 H         141.2298  137.1634  154.2320 H       1  UNL1        0.1502
     31 C         142.8335  134.9489  154.7256 C.ar    1  UNL1        0.0533
     32 C         142.1301  134.6981  153.4248 C.ar    1  UNL1        0.0045
     33 C         142.0053  133.2996  152.8971 C.ar    1  UNL1        0.0001
     34 C         142.5842  132.1518  153.6703 C.ar    1  UNL1        0.0039
     35 C         143.2876  132.4026  154.9710 C.ar    1  UNL1        0.0716
     36 C         143.4124  133.8012  155.4988 C.ar    1  UNL1        0.0084
     37 C         143.8665  131.2549  155.7442 C.3     1  UNL1        0.4186
     38 F         144.4452  130.1073  156.5173 F       1  UNL1       -0.1659
     39 F         142.5682  130.5145  155.6170 F       1  UNL1       -0.1659
     40 F         145.1648  131.9953  155.8714 F       1  UNL1       -0.1659
@<TRIPOS>BOND
     1    20    21    1
     2    21    13    1
     3    13    14   ar
     4    14    15   ar
     5    15    16   ar
     6    16     5    1
     7     5     6    1
     8     5     7    1
     9     7     8    1
    10     8     9    1
    11     9     1    1
    12     1     2    1
    13     2     3    1
    14     3    22    1
    15    22    23   am
    16    23    24    2
    17    23    26    1
    18    26    27    1
    19    27    28   am
    20    28    29    2
    21    28    31    1
    22    31    32   ar
    23    32    33   ar
    24    33    34   ar
    25    34    35   ar
    26    35    37    1
    27    37    38    1
    28    37    39    1
    29    37    40    1
    30    35    36   ar
    31     3     4    1
    32     9    10    1
    33    10    11    1
    34    16    17   ar
    35    17    18   ar
    36    18    19    1
    37    18    13   ar
    38    11     5    1
    39     4     1    1
    40    36    31   ar
    41     6    12    1
    42    22    25    1
    43    27    30    1
@<TRIPOS>MOLECULE
*****
 40 43 0 0 0
SMALL
GASTEIGER

@<TRIPOS>ATOM
      1 N         140.7659  143.2702  159.1304 N.3     1  UNL1       -0.2711
      2 C         140.7566  143.3861  160.6259 C.3     1  UNL1        0.0933
      3 C         141.4743  142.0733  160.7322 C.3     1  UNL1        0.1035
      4 C         141.4836  141.9573  159.2367 C.3     1  UNL1        0.0933
      5 C         139.2629  145.8091  155.7327 C.3     1  UNL1        0.1085
      6 O         138.2951  145.7418  154.5886 O.3     1  UNL1       -0.3826
      7 C         140.3001  146.3502  156.6715 C.3     1  UNL1        0.0326
      8 C         140.8011  145.5039  157.8041 C.3     1  UNL1        0.0187
      9 C         140.2649  144.1165  157.9978 C.3     1  UNL1        0.0578
     10 C         139.2277  143.5754  157.0591 C.3     1  UNL1        0.0187
     11 C         138.7267  144.4218  155.9265 C.3     1  UNL1        0.0326
     12 H         138.3145  146.5790  154.0990 H       1  UNL1        0.2107
     13 C         139.8633  149.9012  153.9593 C.ar    1  UNL1        0.2207
     14 N         140.5004  148.7046  153.3172 N.ar    1  UNL1       -0.2107
     15 C         140.3003  147.3406  153.9084 C.ar    1  UNL1        0.1000
     16 C         139.4630  147.1731  155.1416 C.ar    1  UNL1        0.0208
     17 C         138.8259  148.3697  155.7837 C.ar    1  UNL1       -0.0001
     18 C         139.0260  149.7337  155.1925 C.ar    1  UNL1        0.0311
     19 C         138.3888  150.9302  155.8347 C.3     1  UNL1        0.0359
     20 C         141.2867  152.0608  153.7152 C.3     1  UNL1        0.2542
     21 O         140.0634  151.2652  153.3682 O.3     1  UNL1       -0.4563
     22 N         141.9752  141.2269  161.8648 N.am    1  UNL1       -0.3018
     23 C         141.0251  140.3449  162.6191 C.2     1  UNL1        0.2426
     24 O         139.5740  140.3091  162.2409 O.2     1  UNL1       -0.2733
     25 H         142.9276  141.2504  162.1130 H       1  UNL1        0.1495
     26 C         141.5260  139.4985  163.7518 C.3     1  UNL1        0.1759
     27 N         141.5346  140.0442  165.1490 N.am    1  UNL1       -0.2931
     28 C         140.4041  139.7302  166.0837 C.2     1  UNL1        0.2462
     29 O         139.2652  138.8706  165.6210 O.2     1  UNL1       -0.2701
     30 H         142.2821  140.6083  165.4525 H       1  UNL1        0.1502
     31 C         140.4127  140.2759  167.4809 C.ar    1  UNL1        0.0533
     32 C         139.2344  140.0504  168.3813 C.ar    1  UNL1        0.0045
     33 C         139.2430  140.5961  169.7785 C.ar    1  UNL1        0.0001
     34 C         140.4299  141.3672  170.2752 C.ar    1  UNL1        0.0039
     35 C         141.6081  141.5926  169.3748 C.ar    1  UNL1        0.0716
     36 C         141.5996  141.0470  167.9776 C.ar    1  UNL1        0.0084
     37 C         142.7950  142.3638  169.8715 C.3     1  UNL1        0.4186
     38 F         143.9818  143.1348  170.3682 F       1  UNL1       -0.1659
     39 F         141.9494  143.5983  169.9754 F       1  UNL1       -0.1659
     40 F         143.6406  141.1292  169.7677 F       1  UNL1       -0.1659
@<TRIPOS>BOND
     1    20    21    1
     2    21    13    1
     3    13    14   ar
     4    14    15   ar
     5    15    16   ar
     6    16     5    1
     7     5     6    1
     8     5     7    1
     9     7     8    1
    10     8     9    1
    11     9     1    1
    12     1     2    1
    13     2     3    1
    14     3    22    1
    15    22    23   am
    16    23    24    2
    17    23    26    1
    18    26    27    1
    19    27    28   am
    20    28    29    2
    21    28    31    1
    22    31    32   ar
    23    32    33   ar
    24    33    34   ar
    25    34    35   ar
    26    35    37    1
    27    37    38    1
    28    37    39    1
    29    37    40    1
    30    35    36   ar
    31     3     4    1
    32     9    10    1
    33    10    11    1
    34    16    17   ar
    35    17    18   ar
    36    18    19    1
    37    18    13   ar
    38    11     5    1
    39     4     1    1
    40    36    31   ar
    41     6    12    1
    42    22    25    1
    43    27    30    1
@<TRIPOS>MOLECULE
*****
 40 43 0 0 0
SMALL
GASTEIGER

@<TRIPOS>ATOM
      1 N         142.8377  139.8343  159.2818 N.3     1  UNL1       -0.2711
      2 C         143.7564  140.2630  160.3873 C.3     1  UNL1        0.0933
      3 C         142.6459  141.0642  160.9995 C.3     1  UNL1        0.1035
      4 C         141.7272  140.6356  159.8940 C.3     1  UNL1        0.0933
      5 C         143.2450  137.2253  155.6380 C.3     1  UNL1        0.1085
      6 O         143.5812  137.3320  154.1801 O.3     1  UNL1       -0.3826
      7 C         142.8643  136.6187  156.9560 C.3     1  UNL1        0.0326
      8 C         142.7285  137.4884  158.1706 C.3     1  UNL1        0.0187
      9 C         142.9734  138.9646  158.0673 C.3     1  UNL1        0.0578
     10 C         143.3541  139.5712  156.7493 C.3     1  UNL1        0.0187
     11 C         143.4899  138.7015  155.5347 C.3     1  UNL1        0.0326
     12 H         143.5381  136.4526  153.7731 H       1  UNL1        0.2107
     13 C         142.8604  132.9078  154.4292 C.ar    1  UNL1        0.2207
     14 N         142.1253  133.9689  153.6652 N.ar    1  UNL1       -0.2107
     15 C         142.2535  135.4081  154.0682 C.ar    1  UNL1        0.1000
     16 C         143.1168  135.7861  155.2351 C.ar    1  UNL1        0.0208
     17 C         143.8518  134.7251  155.9991 C.ar    1  UNL1       -0.0001
     18 C         143.7237  133.2859  155.5961 C.ar    1  UNL1        0.0311
     19 C         144.4588  132.2248  156.3602 C.3     1  UNL1        0.0359
     20 C         141.5579  131.0208  153.2075 C.3     1  UNL1        0.2542
     21 O         142.7322  131.4686  154.0263 O.3     1  UNL1       -0.4563
     22 N         142.5102  141.9340  162.2141 N.am    1  UNL1       -0.3018
     23 C         142.6081  143.4251  162.0835 C.2     1  UNL1        0.2426
     24 O         142.8416  144.0464  160.7384 O.2     1  UNL1       -0.2733
     25 H         142.3569  141.5262  163.0969 H       1  UNL1        0.1495
     26 C         142.4724  144.2948  163.2981 C.3     1  UNL1        0.1759
     27 N         142.5962  143.6952  164.6675 N.am    1  UNL1       -0.2931
     28 C         141.4734  142.8763  165.2320 C.2     1  UNL1        0.2462
     29 O         140.2268  142.6570  164.4271 O.2     1  UNL1       -0.2701
     30 H         143.4145  143.8392  165.1957 H       1  UNL1        0.1502
     31 C         141.5973  142.2768  166.6014 C.ar    1  UNL1        0.0533
     32 C         142.9404  142.1901  167.2635 C.ar    1  UNL1        0.0045
     33 C         143.0642  141.5905  168.6329 C.ar    1  UNL1        0.0001
     34 C         141.8449  141.0776  169.3401 C.ar    1  UNL1        0.0039
     35 C         140.5018  141.1643  168.6780 C.ar    1  UNL1        0.0716
     36 C         140.3779  141.7639  167.3087 C.ar    1  UNL1        0.0084
     37 C         139.2824  140.6514  169.3853 C.3     1  UNL1        0.4186
     38 F         138.0632  140.1386  170.0925 F       1  UNL1       -0.1659
     39 F         138.9029  139.8688  168.1633 F       1  UNL1       -0.1659
     40 F         139.6620  141.4341  170.6073 F       1  UNL1       -0.1659
@<TRIPOS>BOND
     1    20    21    1
     2    21    13    1
     3    13    14   ar
     4    14    15   ar
     5    15    16   ar
     6    16     5    1
     7     5     6    1
     8     5     7    1
     9     7     8    1
    10     8     9    1
    11     9     1    1
    12     1     2    1
    13     2     3    1
    14     3    22    1
    15    22    23   am
    16    23    24    2
    17    23    26    1
    18    26    27    1
    19    27    28   am
    20    28    29    2
    21    28    31    1
    22    31    32   ar
    23    32    33   ar
    24    33    34   ar
    25    34    35   ar
    26    35    37    1
    27    37    38    1
    28    37    39    1
    29    37    40    1
    30    35    36   ar
    31     3     4    1
    32     9    10    1
    33    10    11    1
    34    16    17   ar
    35    17    18   ar
    36    18    19    1
    37    18    13   ar
    38    11     5    1
    39     4     1    1
    40    36    31   ar
    41     6    12    1
    42    22    25    1
    43    27    30    1
