@<TRIPOS>MOLECULE
*****
 34 36 0 0 0
SMALL
GASTEIGER

@<TRIPOS>ATOM
      1 C         142.1114  138.8983  158.7216 C.3     1  UNL1        0.1102
      2 C         140.8445  138.3559  158.1293 C.3     1  UNL1        0.0296
      3 C         139.5836  138.3401  158.9415 C.3     1  UNL1        0.0730
      4 N         139.5895  138.8667  160.3461 N.3     1  UNL1       -0.2689
      5 C         140.8563  139.4091  160.9383 C.3     1  UNL1        0.0730
      6 C         142.1173  139.4250  160.1262 C.3     1  UNL1        0.0296
      7 C         143.5497  139.3072  158.8405 C.2     1  UNL1        0.3177
      8 O         144.2794  139.1148  160.1368 O.2     1  UNL1       -0.2501
      9 C         144.7903  141.3086  157.7427 C.3     1  UNL1        0.2556
     10 O         144.2582  139.9084  157.6630 O.3     1  UNL1       -0.4444
     11 C         142.6050  138.5137  157.3584 C.3     1  UNL1        0.1002
     12 N         142.4923  137.0920  156.8935 N.am    1  UNL1       -0.3003
     13 C         143.5578  136.5027  156.0174 C.2     1  UNL1        0.2459
     14 O         144.7360  137.3351  155.6063 O.2     1  UNL1       -0.2701
     15 H         141.7190  136.5457  157.1633 H       1  UNL1        0.1498
     16 C         143.4451  135.0811  155.5525 C.ar    1  UNL1        0.0550
     17 C         142.6438  134.7539  154.3274 C.ar    1  UNL1        0.0160
     18 C         142.5311  133.3322  153.8625 C.ar    1  UNL1        0.0587
     19 CL        141.7298  133.0051  152.6373 Cl      1  UNL1       -0.0822
     20 C         143.2198  132.2378  154.6226 C.ar    1  UNL1        0.0228
     21 C         144.0211  132.5649  155.8477 C.ar    1  UNL1        0.0587
     22 CL        144.7098  131.4704  156.6078 Cl      1  UNL1       -0.0822
     23 C         144.1338  133.9866  156.3127 C.ar    1  UNL1        0.0160
     24 C         138.3285  138.8509  161.1583 C.3     1  UNL1        0.0991
     25 C         138.3958  138.9866  162.6505 C.ar    1  UNL1       -0.0062
     26 C         138.8329  137.8232  163.4905 C.ar    1  UNL1       -0.0030
     27 C         138.9002  137.9588  164.9829 C.ar    1  UNL1        0.0036
     28 C         138.5305  139.2579  165.6353 C.ar    1  UNL1        0.0714
     29 C         138.0933  140.4213  164.7953 C.ar    1  UNL1        0.0036
     30 C         138.0260  140.2856  163.3030 C.ar    1  UNL1       -0.0030
     31 C         138.5978  139.3936  167.1276 C.3     1  UNL1        0.4186
     32 F         138.6652  139.5294  168.6199 F       1  UNL1       -0.1659
     33 F         139.9279  140.0762  167.0055 F       1  UNL1       -0.1659
     34 F         137.2677  138.7111  167.2497 F       1  UNL1       -0.1659
@<TRIPOS>BOND
     1     9    10    1
     2    10     7    1
     3     7     8    2
     4     7     1    1
     5     1    11    1
     6    11    12    1
     7    12    13   am
     8    13    14    2
     9    13    16    1
    10    16    17   ar
    11    17    18   ar
    12    18    19    1
    13    18    20   ar
    14    20    21   ar
    15    21    22    1
    16    21    23   ar
    17     1     2    1
    18     2     3    1
    19     3     4    1
    20     4    24    1
    21    24    25    1
    22    25    26   ar
    23    26    27   ar
    24    27    28   ar
    25    28    31    1
    26    31    32    1
    27    31    33    1
    28    31    34    1
    29    28    29   ar
    30    29    30   ar
    31     4     5    1
    32     5     6    1
    33     6     1    1
    34    23    16   ar
    35    30    25   ar
    36    12    15    1
@<TRIPOS>MOLECULE
*****
 34 36 0 0 0
SMALL
GASTEIGER

@<TRIPOS>ATOM
      1 C         141.9604  138.9102  158.7221 C.3     1  UNL1        0.1102
      2 C         140.6387  138.3541  158.2822 C.3     1  UNL1        0.0296
      3 C         139.4055  138.6203  159.0935 C.3     1  UNL1        0.0730
      4 N         139.4940  139.4428  160.3448 N.3     1  UNL1       -0.2689
      5 C         140.8157  139.9990  160.7847 C.3     1  UNL1        0.0730
      6 C         142.0490  139.7327  159.9734 C.3     1  UNL1        0.0296
      7 C         143.4286  139.2179  158.7283 C.2     1  UNL1        0.3177
      8 O         144.2105  139.1175  160.0044 O.2     1  UNL1       -0.2501
      9 C         144.8132  140.9508  157.3756 C.3     1  UNL1        0.2556
     10 O         144.1147  139.6260  157.4584 O.3     1  UNL1       -0.4444
     11 C         142.3817  138.1946  157.4730 C.3     1  UNL1        0.1002
     12 N         142.7595  136.7441  157.5308 N.am    1  UNL1       -0.3003
     13 C         142.3467  135.8170  156.4262 C.2     1  UNL1        0.2459
     14 O         141.5562  136.3404  155.2638 O.2     1  UNL1       -0.2701
     15 H         143.2784  136.4006  158.2937 H       1  UNL1        0.1498
     16 C         142.7245  134.3665  156.4839 C.ar    1  UNL1        0.0550
     17 C         143.9352  133.9371  157.2584 C.ar    1  UNL1        0.0160
     18 C         144.3130  132.4866  157.3161 C.ar    1  UNL1        0.0587
     19 CL        145.5237  132.0572  158.0907 Cl      1  UNL1       -0.0822
     20 C         143.4801  131.4655  156.5995 C.ar    1  UNL1        0.0228
     21 C         142.2694  131.8949  155.8250 C.ar    1  UNL1        0.0587
     22 CL        141.4365  130.8739  155.1083 Cl      1  UNL1       -0.0822
     23 C         141.8916  133.3454  155.7672 C.ar    1  UNL1        0.0160
     24 C         138.2608  139.7091  161.1561 C.3     1  UNL1        0.0991
     25 C         138.3247  139.6663  162.6540 C.ar    1  UNL1       -0.0062
     26 C         138.0608  140.9089  163.4518 C.ar    1  UNL1       -0.0030
     27 C         138.1248  140.8662  164.9499 C.ar    1  UNL1        0.0036
     28 C         138.4527  139.5809  165.6502 C.ar    1  UNL1        0.0714
     29 C         138.7166  138.3383  164.8524 C.ar    1  UNL1        0.0036
     30 C         138.6526  138.3811  163.3544 C.ar    1  UNL1       -0.0030
     31 C         138.5167  139.5381  167.1482 C.3     1  UNL1        0.4186
     32 F         138.5808  139.4955  168.6462 F       1  UNL1       -0.1659
     33 F         139.7091  140.4479  167.1231 F       1  UNL1       -0.1659
     34 F         137.3244  138.6285  167.1732 F       1  UNL1       -0.1659
@<TRIPOS>BOND
     1     9    10    1
     2    10     7    1
     3     7     8    2
     4     7     1    1
     5     1    11    1
     6    11    12    1
     7    12    13   am
     8    13    14    2
     9    13    16    1
    10    16    17   ar
    11    17    18   ar
    12    18    19    1
    13    18    20   ar
    14    20    21   ar
    15    21    22    1
    16    21    23   ar
    17     1     2    1
    18     2     3    1
    19     3     4    1
    20     4    24    1
    21    24    25    1
    22    25    26   ar
    23    26    27   ar
    24    27    28   ar
    25    28    31    1
    26    31    32    1
    27    31    33    1
    28    31    34    1
    29    28    29   ar
    30    29    30   ar
    31     4     5    1
    32     5     6    1
    33     6     1    1
    34    23    16   ar
    35    30    25   ar
    36    12    15    1
@<TRIPOS>MOLECULE
*****
 34 36 0 0 0
SMALL
GASTEIGER

@<TRIPOS>ATOM
      1 C         143.0981  139.0880  158.4920 C.3     1  UNL1        0.1102
      2 C         142.5020  137.8660  159.1256 C.3     1  UNL1        0.0296
      3 C         142.5895  137.6726  160.6105 C.3     1  UNL1        0.0730
      4 N         143.2730  138.7013  161.4618 N.3     1  UNL1       -0.2689
      5 C         143.8691  139.9232  160.8283 C.3     1  UNL1        0.0730
      6 C         143.7816  140.1166  159.3434 C.3     1  UNL1        0.0296
      7 C         143.5060  140.0713  157.4353 C.2     1  UNL1        0.3177
      8 O         144.7939  139.8806  156.6903 O.2     1  UNL1       -0.2501
      9 C         143.1561  142.3827  156.3016 C.3     1  UNL1        0.2556
     10 O         142.6261  141.2454  157.1236 O.3     1  UNL1       -0.4444
     11 C         142.5562  138.4009  157.2738 C.3     1  UNL1        0.1002
     12 N         142.3972  136.9094  157.2623 N.am    1  UNL1       -0.3003
     13 C         143.3543  136.0591  156.4806 C.2     1  UNL1        0.2459
     14 O         144.4704  136.7003  155.7104 O.2     1  UNL1       -0.2701
     15 H         141.6647  136.4885  157.7678 H       1  UNL1        0.1498
     16 C         143.1953  134.5676  156.4691 C.ar    1  UNL1        0.0550
     17 C         144.1472  133.7058  157.2445 C.ar    1  UNL1        0.0160
     18 C         143.9882  132.2143  157.2330 C.ar    1  UNL1        0.0587
     19 CL        144.9401  131.3526  158.0085 Cl      1  UNL1       -0.0822
     20 C         142.8773  131.5846  156.4461 C.ar    1  UNL1        0.0228
     21 C         141.9254  132.4463  155.6706 C.ar    1  UNL1        0.0587
     22 CL        140.8145  131.8165  154.8837 Cl      1  UNL1       -0.0822
     23 C         142.0844  133.9378  155.6821 C.ar    1  UNL1        0.0160
     24 C         143.3604  138.5079  162.9467 C.3     1  UNL1        0.0991
     25 C         142.1148  138.5395  163.7818 C.ar    1  UNL1       -0.0062
     26 C         141.2325  137.3289  163.8588 C.ar    1  UNL1       -0.0030
     27 C         139.9869  137.3604  164.6939 C.ar    1  UNL1        0.0036
     28 C         139.6235  138.6027  165.4521 C.ar    1  UNL1        0.0714
     29 C         140.5058  139.8134  165.3751 C.ar    1  UNL1        0.0036
     30 C         141.7514  139.7817  164.5400 C.ar    1  UNL1       -0.0030
     31 C         138.3779  138.6343  166.2871 C.3     1  UNL1        0.4186
     32 F         137.1323  138.6661  167.1223 F       1  UNL1       -0.1659
     33 F         138.5692  140.1043  166.5167 F       1  UNL1       -0.1659
     34 F         138.1866  137.1645  166.0576 F       1  UNL1       -0.1659
@<TRIPOS>BOND
     1     9    10    1
     2    10     7    1
     3     7     8    2
     4     7     1    1
     5     1    11    1
     6    11    12    1
     7    12    13   am
     8    13    14    2
     9    13    16    1
    10    16    17   ar
    11    17    18   ar
    12    18    19    1
    13    18    20   ar
    14    20    21   ar
    15    21    22    1
    16    21    23   ar
    17     1     2    1
    18     2     3    1
    19     3     4    1
    20     4    24    1
    21    24    25    1
    22    25    26   ar
    23    26    27   ar
    24    27    28   ar
    25    28    31    1
    26    31    32    1
    27    31    33    1
    28    31    34    1
    29    28    29   ar
    30    29    30   ar
    31     4     5    1
    32     5     6    1
    33     6     1    1
    34    23    16   ar
    35    30    25   ar
    36    12    15    1
@<TRIPOS>MOLECULE
*****
 34 36 0 0 0
SMALL
GASTEIGER

@<TRIPOS>ATOM
      1 C         143.1419  139.0308  158.6953 C.3     1  UNL1        0.1102
      2 C         142.6409  137.7843  159.3624 C.3     1  UNL1        0.0296
      3 C         142.7010  137.6569  160.8558 C.3     1  UNL1        0.0730
      4 N         143.2621  138.7761  161.6820 N.3     1  UNL1       -0.2689
      5 C         143.7631  140.0226  161.0148 C.3     1  UNL1        0.0730
      6 C         143.7030  140.1500  159.5215 C.3     1  UNL1        0.0296
      7 C         143.4901  140.0063  157.6103 C.2     1  UNL1        0.3177
      8 O         142.8595  141.3672  157.5947 O.2     1  UNL1       -0.2501
      9 C         144.7863  140.5813  155.4333 C.3     1  UNL1        0.2556
     10 O         144.4688  139.6209  156.5409 O.3     1  UNL1       -0.4444
     11 C         142.7018  138.2504  157.4923 C.3     1  UNL1        0.1002
     12 N         143.2657  136.8840  157.2371 N.am    1  UNL1       -0.3003
     13 C         142.4575  135.8673  156.4866 C.2     1  UNL1        0.2459
     14 O         141.0855  136.2169  155.9914 O.2     1  UNL1       -0.2701
     15 H         144.1662  136.6546  157.5622 H       1  UNL1        0.1498
     16 C         143.0214  134.5009  156.2315 C.ar    1  UNL1        0.0550
     17 C         142.7011  133.7841  154.9534 C.ar    1  UNL1        0.0160
     18 C         143.2650  132.4177  154.6983 C.ar    1  UNL1        0.0587
     19 CL        142.9446  131.7008  153.4201 Cl      1  UNL1       -0.0822
     20 C         144.1492  131.7683  155.7211 C.ar    1  UNL1        0.0228
     21 C         144.4696  132.4852  156.9992 C.ar    1  UNL1        0.0587
     22 CL        145.3538  131.8357  158.0221 Cl      1  UNL1       -0.0822
     23 C         143.9057  133.8515  157.2544 C.ar    1  UNL1        0.0160
     24 C         143.3221  138.6487  163.1753 C.3     1  UNL1        0.0991
     25 C         142.0545  138.6082  163.9762 C.ar    1  UNL1       -0.0062
     26 C         141.1948  137.3792  163.9580 C.ar    1  UNL1       -0.0030
     27 C         139.9271  137.3386  164.7589 C.ar    1  UNL1        0.0036
     28 C         139.5191  138.5272  165.5780 C.ar    1  UNL1        0.0714
     29 C         140.3789  139.7563  165.5961 C.ar    1  UNL1        0.0036
     30 C         141.6465  139.7967  164.7953 C.ar    1  UNL1       -0.0030
     31 C         138.2515  138.4868  166.3788 C.3     1  UNL1        0.4186
     32 F         136.9838  138.4462  167.1797 F       1  UNL1       -0.1659
     33 F         138.1468  137.0098  166.1384 F       1  UNL1       -0.1659
     34 F         138.3561  139.9636  166.6192 F       1  UNL1       -0.1659
@<TRIPOS>BOND
     1     9    10    1
     2    10     7    1
     3     7     8    2
     4     7     1    1
     5     1    11    1
     6    11    12    1
     7    12    13   am
     8    13    14    2
     9    13    16    1
    10    16    17   ar
    11    17    18   ar
    12    18    19    1
    13    18    20   ar
    14    20    21   ar
    15    21    22    1
    16    21    23   ar
    17     1     2    1
    18     2     3    1
    19     3     4    1
    20     4    24    1
    21    24    25    1
    22    25    26   ar
    23    26    27   ar
    24    27    28   ar
    25    28    31    1
    26    31    32    1
    27    31    33    1
    28    31    34    1
    29    28    29   ar
    30    29    30   ar
    31     4     5    1
    32     5     6    1
    33     6     1    1
    34    23    16   ar
    35    30    25   ar
    36    12    15    1
@<TRIPOS>MOLECULE
*****
 34 36 0 0 0
SMALL
GASTEIGER

@<TRIPOS>ATOM
      1 C         141.7389  139.2700  158.4572 C.3     1  UNL1        0.1102
      2 C         140.3908  138.9396  157.8885 C.3     1  UNL1        0.0296
      3 C         139.1483  139.4310  158.5702 C.3     1  UNL1        0.0730
      4 N         139.2540  140.2528  159.8206 N.3     1  UNL1       -0.2689
      5 C         140.6021  140.5832  160.3893 C.3     1  UNL1        0.0730
      6 C         141.8446  140.0918  159.7076 C.3     1  UNL1        0.0296
      7 C         143.2303  139.3212  158.6100 C.2     1  UNL1        0.3177
      8 O         143.8680  138.8821  159.8947 O.2     1  UNL1       -0.2501
      9 C         144.7935  141.1281  157.5897 C.3     1  UNL1        0.2556
     10 O         144.0838  139.8114  157.4782 O.3     1  UNL1       -0.4444
     11 C         142.1512  138.4660  157.2599 C.3     1  UNL1        0.1002
     12 N         142.4588  137.0052  157.4071 N.am    1  UNL1       -0.3003
     13 C         142.3937  136.1009  156.2121 C.2     1  UNL1        0.2459
     14 O         142.0211  136.6573  154.8699 O.2     1  UNL1       -0.2701
     15 H         142.7033  136.6400  158.2881 H       1  UNL1        0.1498
     16 C         142.7013  134.6402  156.3593 C.ar    1  UNL1        0.0550
     17 C         141.8335  133.6193  155.6851 C.ar    1  UNL1        0.0160
     18 C         142.1411  132.1586  155.8323 C.ar    1  UNL1        0.0587
     19 CL        141.2732  131.1377  155.1580 Cl      1  UNL1       -0.0822
     20 C         143.3165  131.7187  156.6538 C.ar    1  UNL1        0.0228
     21 C         144.1844  132.7396  157.3281 C.ar    1  UNL1        0.0587
     22 CL        145.3598  132.2998  158.1496 Cl      1  UNL1       -0.0822
     23 C         143.8768  134.2004  157.1809 C.ar    1  UNL1        0.0160
     24 C         138.0115  140.7442  160.5023 C.3     1  UNL1        0.0991
     25 C         138.1149  141.7130  161.6428 C.ar    1  UNL1       -0.0062
     26 C         137.6764  141.3027  163.0174 C.ar    1  UNL1       -0.0030
     27 C         137.7798  142.2715  164.1580 C.ar    1  UNL1        0.0036
     28 C         138.3217  143.6505  163.9240 C.ar    1  UNL1        0.0714
     29 C         138.7602  144.0607  162.5494 C.ar    1  UNL1        0.0036
     30 C         138.6568  143.0919  161.4089 C.ar    1  UNL1       -0.0030
     31 C         138.4252  144.6192  165.0645 C.3     1  UNL1        0.4186
     32 F         138.5284  145.5880  166.2050 F       1  UNL1       -0.1659
     33 F         136.9751  144.4017  165.3807 F       1  UNL1       -0.1659
     34 F         139.8751  144.8368  164.7483 F       1  UNL1       -0.1659
@<TRIPOS>BOND
     1     9    10    1
     2    10     7    1
     3     7     8    2
     4     7     1    1
     5     1    11    1
     6    11    12    1
     7    12    13   am
     8    13    14    2
     9    13    16    1
    10    16    17   ar
    11    17    18   ar
    12    18    19    1
    13    18    20   ar
    14    20    21   ar
    15    21    22    1
    16    21    23   ar
    17     1     2    1
    18     2     3    1
    19     3     4    1
    20     4    24    1
    21    24    25    1
    22    25    26   ar
    23    26    27   ar
    24    27    28   ar
    25    28    31    1
    26    31    32    1
    27    31    33    1
    28    31    34    1
    29    28    29   ar
    30    29    30   ar
    31     4     5    1
    32     5     6    1
    33     6     1    1
    34    23    16   ar
    35    30    25   ar
    36    12    15    1
@<TRIPOS>MOLECULE
*****
 34 36 0 0 0
SMALL
GASTEIGER

@<TRIPOS>ATOM
      1 C         138.4313  139.0805  162.2018 C.3     1  UNL1        0.1102
      2 C         138.8662  137.8793  162.9879 C.3     1  UNL1        0.0296
      3 C         138.9256  137.9442  164.4853 C.3     1  UNL1        0.0730
      4 N         138.5501  139.2103  165.1966 N.3     1  UNL1       -0.2689
      5 C         138.1152  140.4115  164.4106 C.3     1  UNL1        0.0730
      6 C         138.0558  140.3467  162.9132 C.3     1  UNL1        0.0296
      7 C         138.0850  139.9465  161.0270 C.2     1  UNL1        0.3177
      8 O         136.9107  139.6003  160.1603 O.2     1  UNL1       -0.2501
      9 C         138.4840  142.1048  159.6369 C.3     1  UNL1        0.2556
     10 O         138.9130  141.1587  160.7188 O.3     1  UNL1       -0.4444
     11 C         138.6865  138.1152  161.0825 C.3     1  UNL1        0.1002
     12 N         139.5305  138.5285  159.9134 N.am    1  UNL1       -0.3003
     13 C         141.0099  138.2812  159.9318 C.2     1  UNL1        0.2459
     14 O         141.6452  137.6206  161.1192 O.2     1  UNL1       -0.2701
     15 H         139.1135  138.9621  159.1341 H       1  UNL1        0.1498
     16 C         141.8540  138.6946  158.7627 C.ar    1  UNL1        0.0550
     17 C         142.3956  137.6570  157.8246 C.ar    1  UNL1        0.0160
     18 C         143.2396  138.0703  156.6555 C.ar    1  UNL1        0.0587
     19 CL        143.7812  137.0327  155.7174 Cl      1  UNL1       -0.0822
     20 C         143.5420  139.5212  156.4245 C.ar    1  UNL1        0.0228
     21 C         143.0004  140.5589  157.3626 C.ar    1  UNL1        0.0587
     22 CL        143.3029  142.0098  157.1317 Cl      1  UNL1       -0.0822
     23 C         142.1564  140.1455  158.5317 C.ar    1  UNL1        0.0160
     24 C         138.6095  139.2752  166.6940 C.3     1  UNL1        0.0991
     25 C         139.7965  139.8933  167.3715 C.ar    1  UNL1       -0.0062
     26 C         141.1129  139.9693  166.6563 C.ar    1  UNL1       -0.0030
     27 C         142.2999  140.5875  167.3337 C.ar    1  UNL1        0.0036
     28 C         142.1706  141.1296  168.7263 C.ar    1  UNL1        0.0714
     29 C         140.8542  141.0536  169.4415 C.ar    1  UNL1        0.0036
     30 C         139.6673  140.4355  168.7640 C.ar    1  UNL1       -0.0030
     31 C         143.3576  141.7478  169.4037 C.3     1  UNL1        0.4186
     32 F         144.5446  142.3660  170.0810 F       1  UNL1       -0.1659
     33 F         143.6347  142.5621  168.1748 F       1  UNL1       -0.1659
     34 F         143.0804  140.9335  170.6325 F       1  UNL1       -0.1659
@<TRIPOS>BOND
     1     9    10    1
     2    10     7    1
     3     7     8    2
     4     7     1    1
     5     1    11    1
     6    11    12    1
     7    12    13   am
     8    13    14    2
     9    13    16    1
    10    16    17   ar
    11    17    18   ar
    12    18    19    1
    13    18    20   ar
    14    20    21   ar
    15    21    22    1
    16    21    23   ar
    17     1     2    1
    18     2     3    1
    19     3     4    1
    20     4    24    1
    21    24    25    1
    22    25    26   ar
    23    26    27   ar
    24    27    28   ar
    25    28    31    1
    26    31    32    1
    27    31    33    1
    28    31    34    1
    29    28    29   ar
    30    29    30   ar
    31     4     5    1
    32     5     6    1
    33     6     1    1
    34    23    16   ar
    35    30    25   ar
    36    12    15    1
@<TRIPOS>MOLECULE
*****
 34 36 0 0 0
SMALL
GASTEIGER

@<TRIPOS>ATOM
      1 C         139.6783  139.2503  160.1983 C.3     1  UNL1        0.1102
      2 C         140.6790  138.3460  160.8546 C.3     1  UNL1        0.0296
      3 C         140.3861  137.7562  162.2023 C.3     1  UNL1        0.0730
      4 N         139.0926  138.0707  162.8937 N.3     1  UNL1       -0.2689
      5 C         138.0919  138.9749  162.2373 C.3     1  UNL1        0.0730
      6 C         138.3848  139.5648  160.8896 C.3     1  UNL1        0.0296
      7 C         139.0512  140.1545  159.1788 C.2     1  UNL1        0.3177
      8 O         138.4396  139.5751  157.9377 O.2     1  UNL1       -0.2501
      9 C         138.3631  142.5378  158.4066 C.3     1  UNL1        0.2556
     10 O         139.0358  141.6379  159.4004 O.3     1  UNL1       -0.4444
     11 C         140.7540  139.2498  159.1529 C.3     1  UNL1        0.1002
     12 N         140.8344  138.1285  158.1599 N.am    1  UNL1       -0.3003
     13 C         142.1561  137.7530  157.5580 C.2     1  UNL1        0.2459
     14 O         143.3973  138.4988  157.9491 O.2     1  UNL1       -0.2701
     15 H         140.0197  137.6389  157.9032 H       1  UNL1        0.1498
     16 C         142.2364  136.6316  156.5650 C.ar    1  UNL1        0.0550
     17 C         143.1468  135.4672  156.8206 C.ar    1  UNL1        0.0160
     18 C         143.2272  134.3459  155.8276 C.ar    1  UNL1        0.0587
     19 CL        144.1376  133.1814  156.0833 Cl      1  UNL1       -0.0822
     20 C         142.3971  134.3889  154.5789 C.ar    1  UNL1        0.0228
     21 C         141.4867  135.5533  154.3232 C.ar    1  UNL1        0.0587
     22 CL        140.6567  135.5963  153.0746 Cl      1  UNL1       -0.0822
     23 C         141.4063  136.6747  155.3163 C.ar    1  UNL1        0.0160
     24 C         138.7998  137.4808  164.2414 C.3     1  UNL1        0.0991
     25 C         138.9912  138.3063  165.4790 C.ar    1  UNL1       -0.0062
     26 C         137.9252  138.3346  166.5340 C.ar    1  UNL1       -0.0030
     27 C         138.1166  139.1601  167.7717 C.ar    1  UNL1        0.0036
     28 C         139.3740  139.9574  167.9545 C.ar    1  UNL1        0.0714
     29 C         140.4400  139.9291  166.8995 C.ar    1  UNL1        0.0036
     30 C         140.2485  139.1036  165.6618 C.ar    1  UNL1       -0.0030
     31 C         139.5654  140.7829  169.1921 C.3     1  UNL1        0.4186
     32 F         139.7570  141.6084  170.4297 F       1  UNL1       -0.1659
     33 F         140.8135  141.3730  168.6054 F       1  UNL1       -0.1659
     34 F         138.3176  140.1928  169.7789 F       1  UNL1       -0.1659
@<TRIPOS>BOND
     1     9    10    1
     2    10     7    1
     3     7     8    2
     4     7     1    1
     5     1    11    1
     6    11    12    1
     7    12    13   am
     8    13    14    2
     9    13    16    1
    10    16    17   ar
    11    17    18   ar
    12    18    19    1
    13    18    20   ar
    14    20    21   ar
    15    21    22    1
    16    21    23   ar
    17     1     2    1
    18     2     3    1
    19     3     4    1
    20     4    24    1
    21    24    25    1
    22    25    26   ar
    23    26    27   ar
    24    27    28   ar
    25    28    31    1
    26    31    32    1
    27    31    33    1
    28    31    34    1
    29    28    29   ar
    30    29    30   ar
    31     4     5    1
    32     5     6    1
    33     6     1    1
    34    23    16   ar
    35    30    25   ar
    36    12    15    1
@<TRIPOS>MOLECULE
*****
 34 36 0 0 0
SMALL
GASTEIGER

@<TRIPOS>ATOM
      1 C         143.0520  138.8093  162.4582 C.3     1  UNL1        0.1102
      2 C         144.0664  139.6418  163.1846 C.3     1  UNL1        0.0296
      3 C         144.1433  139.5929  164.6818 C.3     1  UNL1        0.0730
      4 N         143.2058  138.7114  165.4526 N.3     1  UNL1       -0.2689
      5 C         142.1914  137.8789  164.7262 C.3     1  UNL1        0.0730
      6 C         142.1145  137.9278  163.2290 C.3     1  UNL1        0.0296
      7 C         142.2687  138.2106  161.3277 C.2     1  UNL1        0.3177
      8 O         142.9816  137.5073  160.2110 O.2     1  UNL1       -0.2501
      9 C         140.0506  138.5758  160.0250 C.3     1  UNL1        0.2556
     10 O         140.7724  138.3153  161.3138 O.3     1  UNL1       -0.4444
     11 C         143.7175  139.4828  161.2948 C.3     1  UNL1        0.1002
     12 N         142.9997  140.5646  160.5435 N.am    1  UNL1       -0.3003
     13 C         143.5812  141.9459  160.4794 C.2     1  UNL1        0.2459
     14 O         144.8804  142.2453  161.1666 O.2     1  UNL1       -0.2701
     15 H         142.1469  140.3681  160.0925 H       1  UNL1        0.1498
     16 C         142.8634  143.0277  159.7281 C.ar    1  UNL1        0.0550
     17 C         143.1279  143.2272  158.2652 C.ar    1  UNL1        0.0160
     18 C         142.4101  144.3090  157.5139 C.ar    1  UNL1        0.0587
     19 CL        142.6746  144.5084  156.0509 Cl      1  UNL1       -0.0822
     20 C         141.4277  145.1913  158.2255 C.ar    1  UNL1        0.0228
     21 C         141.1632  144.9919  159.6885 C.ar    1  UNL1        0.0587
     22 CL        140.1809  145.8742  160.4002 Cl      1  UNL1       -0.0822
     23 C         141.8810  143.9101  160.4398 C.ar    1  UNL1        0.0160
     24 C         143.2827  138.6626  166.9498 C.3     1  UNL1        0.0991
     25 C         142.4693  139.6158  167.7741 C.ar    1  UNL1       -0.0062
     26 C         142.3786  139.4335  169.2603 C.ar    1  UNL1       -0.0030
     27 C         141.5651  140.3867  170.0847 C.ar    1  UNL1        0.0036
     28 C         140.8423  141.5223  169.4230 C.ar    1  UNL1        0.0714
     29 C         140.9329  141.7046  167.9368 C.ar    1  UNL1        0.0036
     30 C         141.7464  140.7514  167.1125 C.ar    1  UNL1       -0.0030
     31 C         140.0288  142.4755  170.2473 C.3     1  UNL1        0.4186
     32 F         139.2153  143.4287  171.0716 F       1  UNL1       -0.1659
     33 F         138.8870  141.5028  170.2453 F       1  UNL1       -0.1659
     34 F         141.1706  143.4482  170.2493 F       1  UNL1       -0.1659
@<TRIPOS>BOND
     1     9    10    1
     2    10     7    1
     3     7     8    2
     4     7     1    1
     5     1    11    1
     6    11    12    1
     7    12    13   am
     8    13    14    2
     9    13    16    1
    10    16    17   ar
    11    17    18   ar
    12    18    19    1
    13    18    20   ar
    14    20    21   ar
    15    21    22    1
    16    21    23   ar
    17     1     2    1
    18     2     3    1
    19     3     4    1
    20     4    24    1
    21    24    25    1
    22    25    26   ar
    23    26    27   ar
    24    27    28   ar
    25    28    31    1
    26    31    32    1
    27    31    33    1
    28    31    34    1
    29    28    29   ar
    30    29    30   ar
    31     4     5    1
    32     5     6    1
    33     6     1    1
    34    23    16   ar
    35    30    25   ar
    36    12    15    1
@<TRIPOS>MOLECULE
*****
 34 36 0 0 0
SMALL
GASTEIGER

@<TRIPOS>ATOM
      1 C         141.3421  138.2141  157.8795 C.3     1  UNL1        0.1102
      2 C         142.6621  137.7067  158.3797 C.3     1  UNL1        0.0296
      3 C         143.0109  137.8299  159.8333 C.3     1  UNL1        0.0730
      4 N         142.0397  138.4604  160.7869 N.3     1  UNL1       -0.2689
      5 C         140.7197  138.9678  160.2867 C.3     1  UNL1        0.0730
      6 C         140.3709  138.8446  158.8331 C.3     1  UNL1        0.0296
      7 C         140.2246  138.5421  156.9342 C.2     1  UNL1        0.3177
      8 O         138.8687  138.8953  157.4696 O.2     1  UNL1       -0.2501
      9 C         139.3385  138.8176  154.5075 C.3     1  UNL1        0.2556
     10 O         140.4630  138.5168  155.4535 O.3     1  UNL1       -0.4444
     11 C         141.9252  137.6975  156.5977 C.3     1  UNL1        0.1002
     12 N         142.7230  136.4272  156.5950 N.am    1  UNL1       -0.3003
     13 C         142.1888  135.2076  155.9041 C.2     1  UNL1        0.2459
     14 O         140.8569  135.2582  155.2161 O.2     1  UNL1       -0.2701
     15 H         143.5972  136.3939  157.0465 H       1  UNL1        0.1498
     16 C         142.9865  133.9373  155.9013 C.ar    1  UNL1        0.0550
     17 C         143.9100  133.6291  157.0425 C.ar    1  UNL1        0.0160
     18 C         144.7077  132.3588  157.0397 C.ar    1  UNL1        0.0587
     19 CL        145.6312  132.0506  158.1809 Cl      1  UNL1       -0.0822
     20 C         144.5821  131.3968  155.8957 C.ar    1  UNL1        0.0228
     21 C         143.6586  131.7050  154.7545 C.ar    1  UNL1        0.0587
     22 CL        143.5329  130.7429  153.6106 Cl      1  UNL1       -0.0822
     23 C         142.8608  132.9752  154.7573 C.ar    1  UNL1        0.0160
     24 C         142.3885  138.5836  162.2405 C.3     1  UNL1        0.0991
     25 C         141.3067  138.5337  163.2783 C.ar    1  UNL1       -0.0062
     26 C         140.5928  137.2440  163.5561 C.ar    1  UNL1       -0.0030
     27 C         139.5108  137.1941  164.5939 C.ar    1  UNL1        0.0036
     28 C         139.1428  138.4338  165.3538 C.ar    1  UNL1        0.0714
     29 C         139.8566  139.7235  165.0760 C.ar    1  UNL1        0.0036
     30 C         140.9385  139.7734  164.0382 C.ar    1  UNL1       -0.0030
     31 C         138.0609  138.3840  166.3916 C.3     1  UNL1        0.4186
     32 F         136.9790  138.3340  167.4293 F       1  UNL1       -0.1659
     33 F         138.0013  136.8911  166.2577 F       1  UNL1       -0.1659
     34 F         138.1204  139.8767  166.5255 F       1  UNL1       -0.1659
@<TRIPOS>BOND
     1     9    10    1
     2    10     7    1
     3     7     8    2
     4     7     1    1
     5     1    11    1
     6    11    12    1
     7    12    13   am
     8    13    14    2
     9    13    16    1
    10    16    17   ar
    11    17    18   ar
    12    18    19    1
    13    18    20   ar
    14    20    21   ar
    15    21    22    1
    16    21    23   ar
    17     1     2    1
    18     2     3    1
    19     3     4    1
    20     4    24    1
    21    24    25    1
    22    25    26   ar
    23    26    27   ar
    24    27    28   ar
    25    28    31    1
    26    31    32    1
    27    31    33    1
    28    31    34    1
    29    28    29   ar
    30    29    30   ar
    31     4     5    1
    32     5     6    1
    33     6     1    1
    34    23    16   ar
    35    30    25   ar
    36    12    15    1
